
              Welcome to ANSYS Fluent 2020 R1

              Copyright 1987-2020 ANSYS, Inc. All Rights Reserved.
              Unauthorized use, distribution or duplication is prohibited.
              This product is subject to U.S. laws governing export and re-export.
              For full Legal Notice, see documentation.

Build Time: Dec  2 2019 14:15:26 EST  Build Id: 10114  
 
Host spawning Node 0 on machine "DESKTOP-8RUTNJQ" (win64).
WARNING: No cached password or password provided.
         use '-pass' or '-cache' to provide password
Host 0 -- ip 192.168.161.95 -- ranks 0 - 99

 host | 0
======|======
    0 : SHM

 Prot -  All Intra-node communication is: SHM


-------------------------------------------------------------------------------
ID    Hostname         Core     O.S.         PID     Vendor        
-------------------------------------------------------------------------------
n99   DESKTOP-8RUTNJQ  100/128  Windows-x64  184756  AMD EPYC 7702 
n98   DESKTOP-8RUTNJQ  99/128   Windows-x64  184656  AMD EPYC 7702 
n97   DESKTOP-8RUTNJQ  98/128   Windows-x64  183796  AMD EPYC 7702 
n96   DESKTOP-8RUTNJQ  97/128   Windows-x64  184484  AMD EPYC 7702 
n95   DESKTOP-8RUTNJQ  96/128   Windows-x64  26568   AMD EPYC 7702 
n94   DESKTOP-8RUTNJQ  95/128   Windows-x64  180964  AMD EPYC 7702 
n93   DESKTOP-8RUTNJQ  94/128   Windows-x64  184776  AMD EPYC 7702 
n92   DESKTOP-8RUTNJQ  93/128   Windows-x64  184632  AMD EPYC 7702 
n91   DESKTOP-8RUTNJQ  92/128   Windows-x64  178244  AMD EPYC 7702 
n90   DESKTOP-8RUTNJQ  91/128   Windows-x64  182320  AMD EPYC 7702 
n89   DESKTOP-8RUTNJQ  90/128   Windows-x64  184124  AMD EPYC 7702 
n88   DESKTOP-8RUTNJQ  89/128   Windows-x64  182232  AMD EPYC 7702 
n87   DESKTOP-8RUTNJQ  88/128   Windows-x64  183872  AMD EPYC 7702 
n86   DESKTOP-8RUTNJQ  87/128   Windows-x64  181380  AMD EPYC 7702 
n85   DESKTOP-8RUTNJQ  86/128   Windows-x64  184796  AMD EPYC 7702 
n84   DESKTOP-8RUTNJQ  85/128   Windows-x64  178444  AMD EPYC 7702 
n83   DESKTOP-8RUTNJQ  84/128   Windows-x64  183880  AMD EPYC 7702 
n82   DESKTOP-8RUTNJQ  83/128   Windows-x64  173956  AMD EPYC 7702 
n81   DESKTOP-8RUTNJQ  82/128   Windows-x64  179068  AMD EPYC 7702 
n80   DESKTOP-8RUTNJQ  81/128   Windows-x64  182900  AMD EPYC 7702 
-------------------------------------------------------------------------------
ID    Hostname         Core     O.S.         PID     Vendor        
-------------------------------------------------------------------------------
n79   DESKTOP-8RUTNJQ  80/128   Windows-x64  182072  AMD EPYC 7702 
n78   DESKTOP-8RUTNJQ  79/128   Windows-x64  181124  AMD EPYC 7702 
n77   DESKTOP-8RUTNJQ  78/128   Windows-x64  183676  AMD EPYC 7702 
n76   DESKTOP-8RUTNJQ  77/128   Windows-x64  184876  AMD EPYC 7702 
n75   DESKTOP-8RUTNJQ  76/128   Windows-x64  180592  AMD EPYC 7702 
n74   DESKTOP-8RUTNJQ  75/128   Windows-x64  180532  AMD EPYC 7702 
n73   DESKTOP-8RUTNJQ  74/128   Windows-x64  184440  AMD EPYC 7702 
n72   DESKTOP-8RUTNJQ  73/128   Windows-x64  184200  AMD EPYC 7702 
n71   DESKTOP-8RUTNJQ  72/128   Windows-x64  181864  AMD EPYC 7702 
n70   DESKTOP-8RUTNJQ  71/128   Windows-x64  183072  AMD EPYC 7702 
n69   DESKTOP-8RUTNJQ  70/128   Windows-x64  182076  AMD EPYC 7702 
n68   DESKTOP-8RUTNJQ  69/128   Windows-x64  184052  AMD EPYC 7702 
n67   DESKTOP-8RUTNJQ  68/128   Windows-x64  184212  AMD EPYC 7702 
n66   DESKTOP-8RUTNJQ  67/128   Windows-x64  183340  AMD EPYC 7702 
n65   DESKTOP-8RUTNJQ  66/128   Windows-x64  184960  AMD EPYC 7702 
n64   DESKTOP-8RUTNJQ  65/128   Windows-x64  180584  AMD EPYC 7702 
n63   DESKTOP-8RUTNJQ  64/128   Windows-x64  179496  AMD EPYC 7702 
n62   DESKTOP-8RUTNJQ  63/128   Windows-x64  181488  AMD EPYC 7702 
n61   DESKTOP-8RUTNJQ  62/128   Windows-x64  182524  AMD EPYC 7702 
n60   DESKTOP-8RUTNJQ  61/128   Windows-x64  183268  AMD EPYC 7702 
-------------------------------------------------------------------------------
ID    Hostname         Core     O.S.         PID     Vendor        
-------------------------------------------------------------------------------
n59   DESKTOP-8RUTNJQ  60/128   Windows-x64  181500  AMD EPYC 7702 
n58   DESKTOP-8RUTNJQ  59/128   Windows-x64  182408  AMD EPYC 7702 
n57   DESKTOP-8RUTNJQ  58/128   Windows-x64  183964  AMD EPYC 7702 
n56   DESKTOP-8RUTNJQ  57/128   Windows-x64  181944  AMD EPYC 7702 
n55   DESKTOP-8RUTNJQ  56/128   Windows-x64  178572  AMD EPYC 7702 
n54   DESKTOP-8RUTNJQ  55/128   Windows-x64  181064  AMD EPYC 7702 
n53   DESKTOP-8RUTNJQ  54/128   Windows-x64  174272  AMD EPYC 7702 
n52   DESKTOP-8RUTNJQ  53/128   Windows-x64  183204  AMD EPYC 7702 
n51   DESKTOP-8RUTNJQ  52/128   Windows-x64  183480  AMD EPYC 7702 
n50   DESKTOP-8RUTNJQ  51/128   Windows-x64  181152  AMD EPYC 7702 
n49   DESKTOP-8RUTNJQ  50/128   Windows-x64  182436  AMD EPYC 7702 
n48   DESKTOP-8RUTNJQ  49/128   Windows-x64  182204  AMD EPYC 7702 
n47   DESKTOP-8RUTNJQ  48/128   Windows-x64  183280  AMD EPYC 7702 
n46   DESKTOP-8RUTNJQ  47/128   Windows-x64  179664  AMD EPYC 7702 
n45   DESKTOP-8RUTNJQ  46/128   Windows-x64  171760  AMD EPYC 7702 
n44   DESKTOP-8RUTNJQ  45/128   Windows-x64  184276  AMD EPYC 7702 
n43   DESKTOP-8RUTNJQ  44/128   Windows-x64  184224  AMD EPYC 7702 
n42   DESKTOP-8RUTNJQ  43/128   Windows-x64  179168  AMD EPYC 7702 
n41   DESKTOP-8RUTNJQ  42/128   Windows-x64  180504  AMD EPYC 7702 
n40   DESKTOP-8RUTNJQ  41/128   Windows-x64  90204   AMD EPYC 7702 
-------------------------------------------------------------------------------
ID    Hostname         Core     O.S.         PID     Vendor        
-------------------------------------------------------------------------------
n39   DESKTOP-8RUTNJQ  40/128   Windows-x64  178684  AMD EPYC 7702 
n38   DESKTOP-8RUTNJQ  39/128   Windows-x64  181572  AMD EPYC 7702 
n37   DESKTOP-8RUTNJQ  38/128   Windows-x64  182632  AMD EPYC 7702 
n36   DESKTOP-8RUTNJQ  37/128   Windows-x64  176036  AMD EPYC 7702 
n35   DESKTOP-8RUTNJQ  36/128   Windows-x64  178772  AMD EPYC 7702 
n34   DESKTOP-8RUTNJQ  35/128   Windows-x64  182940  AMD EPYC 7702 
n33   DESKTOP-8RUTNJQ  34/128   Windows-x64  174264  AMD EPYC 7702 
n32   DESKTOP-8RUTNJQ  33/128   Windows-x64  183120  AMD EPYC 7702 
n31   DESKTOP-8RUTNJQ  32/128   Windows-x64  177900  AMD EPYC 7702 
n30   DESKTOP-8RUTNJQ  31/128   Windows-x64  180800  AMD EPYC 7702 
n29   DESKTOP-8RUTNJQ  30/128   Windows-x64  182984  AMD EPYC 7702 
n28   DESKTOP-8RUTNJQ  29/128   Windows-x64  182156  AMD EPYC 7702 
n27   DESKTOP-8RUTNJQ  28/128   Windows-x64  182296  AMD EPYC 7702 
n26   DESKTOP-8RUTNJQ  27/128   Windows-x64  182964  AMD EPYC 7702 
n25   DESKTOP-8RUTNJQ  26/128   Windows-x64  184348  AMD EPYC 7702 
n24   DESKTOP-8RUTNJQ  25/128   Windows-x64  178956  AMD EPYC 7702 
n23   DESKTOP-8RUTNJQ  24/128   Windows-x64  181960  AMD EPYC 7702 
n22   DESKTOP-8RUTNJQ  23/128   Windows-x64  182696  AMD EPYC 7702 
n21   DESKTOP-8RUTNJQ  22/128   Windows-x64  176516  AMD EPYC 7702 
n20   DESKTOP-8RUTNJQ  21/128   Windows-x64  180956  AMD EPYC 7702 
-------------------------------------------------------------------------------
ID    Hostname         Core     O.S.         PID     Vendor        
-------------------------------------------------------------------------------
n19   DESKTOP-8RUTNJQ  20/128   Windows-x64  180012  AMD EPYC 7702 
n18   DESKTOP-8RUTNJQ  19/128   Windows-x64  181652  AMD EPYC 7702 
n17   DESKTOP-8RUTNJQ  18/128   Windows-x64  167720  AMD EPYC 7702 
n16   DESKTOP-8RUTNJQ  17/128   Windows-x64  181832  AMD EPYC 7702 
n15   DESKTOP-8RUTNJQ  16/128   Windows-x64  177860  AMD EPYC 7702 
n14   DESKTOP-8RUTNJQ  15/128   Windows-x64  180828  AMD EPYC 7702 
n13   DESKTOP-8RUTNJQ  14/128   Windows-x64  183200  AMD EPYC 7702 
n12   DESKTOP-8RUTNJQ  13/128   Windows-x64  43056   AMD EPYC 7702 
n11   DESKTOP-8RUTNJQ  12/128   Windows-x64  175224  AMD EPYC 7702 
n10   DESKTOP-8RUTNJQ  11/128   Windows-x64  181876  AMD EPYC 7702 
n9    DESKTOP-8RUTNJQ  10/128   Windows-x64  179988  AMD EPYC 7702 
n8    DESKTOP-8RUTNJQ  9/128    Windows-x64  177132  AMD EPYC 7702 
n7    DESKTOP-8RUTNJQ  8/128    Windows-x64  182024  AMD EPYC 7702 
n6    DESKTOP-8RUTNJQ  7/128    Windows-x64  175384  AMD EPYC 7702 
n5    DESKTOP-8RUTNJQ  6/128    Windows-x64  178484  AMD EPYC 7702 
n4    DESKTOP-8RUTNJQ  5/128    Windows-x64  160092  AMD EPYC 7702 
n3    DESKTOP-8RUTNJQ  4/128    Windows-x64  179212  AMD EPYC 7702 
n2    DESKTOP-8RUTNJQ  3/128    Windows-x64  182104  AMD EPYC 7702 
n1    DESKTOP-8RUTNJQ  2/128    Windows-x64  182824  AMD EPYC 7702 
n0*   DESKTOP-8RUTNJQ  1/128    Windows-x64  180192  AMD EPYC 7702 
host  DESKTOP-8RUTNJQ           Windows-x64  181812  AMD EPYC 7702 

MPI Option Selected: ibmmpi
Selected system interconnect: default
-------------------------------------------------------------------------------



Cleanup script file is E:\LGF\Sim\Script\\cleanup-fluent-DESKTOP-8RUTNJQ-180916.bat

Reading journal file E:\LGF\Sim\task\0825_1\P_85\J_M100_85_-5000.jou...

> ;Read case
/file/read-case E:\LGF\Sim\basic_Mesh\Model_100.msh

DESKTOP-8RUTNJQ has other FLUENT parallel processes running.                       Process affinity not being set.

Reading "E:\LGF\Sim\basic_Mesh\Model_100.msh"...

Buffering for file scan...

  209972 nodes, binary.
   42841 nodes, binary.
    3768 mixed wall faces, zone  1, binary.
   34998 triangular wall faces, zone  2, binary.
    6023 triangular wall faces, zone  3, binary.
   11483 triangular wall faces, zone  4, binary.
    5640 triangular wall faces, zone  5, binary.
    2602 triangular interior faces, zone  6, binary.
     310 quadrilateral interior faces, zone  7, binary.
    2662 mixed interior faces, zone  8, binary.
    2776 mixed interior faces, zone  9, binary.
   18821 mixed interior faces, zone 10, binary.
 1189685 mixed interior faces, zone 11, binary.
  263371 mixed interior faces, zone 12, binary.
  203749 mixed interior faces, zone 13, binary.
  217848 triangular interior faces, zone 14, binary.
     637 triangular wall faces, zone 22, binary.
     100 quadrilateral wall faces, zone 23, binary.
    4385 mixed wall faces, zone 24, binary.
    2646 mixed wall faces, zone 25, binary.
    1906 triangular wall faces, zone 26, binary.
    4293 triangular wall faces, zone 27, binary.
    4279 triangular wall faces, zone 28, binary.
    6990 mixed cells, zone 15, binary.
  565192 mixed cells, zone 16, binary.
  128494 mixed cells, zone 17, binary.
   99631 mixed cells, zone 18, binary.
  112217 mixed cells, zone 19, binary.

Building...
     mesh
	auto partitioning mesh by Metis (fast),
	distributing mesh
		parts..................................................,
		faces..................................................,
		nodes..................................................,
		cells..................................................,
        bandwidth reduction using Reverse Cuthill-McKee: 9508/523 = 18.1797
     materials,
     interface,
     domains,
     zones,
	wall_tx_xi
	wall_xi_tx
	i2
	p2
	p1
	i1
	o1
	towparts-xi_zhui
	towparts-tc_tc
	towparts-tx_tx
	towparts-block_block
	towparts-xi_huan
	interior-towparts-xi_zhui
	interior-towparts-tc_tc
	interior-towparts-tx_tx
	interior-towparts-block_block
	interior-towparts-xi_huan
	interior-towparts-block_block-towparts-tc_tc
	interior-towparts-block_block-towparts-tx_tx
	interior-towparts-xi_huan-towparts-xi_zhui
	interior-towparts-block_block-towparts-xi_zhui
	wall-towparts-xi_zhui
	wall-towparts-tc_tc
	wall-towparts-tx_tx
	wall-towparts-block_block
	wall-towparts-xi_huan
     parallel,
Done.

> 
adjoint/                file/                   report/
define/                 mesh/                   solve/
display/                parallel/               surface/
exit                    plot/                   views/

> ; set save
;;/file/auto-save/data-frequency 2000
;;/file/auto-save/case-frequency each-time
;;/file/autosave/root-name "30du.msh.gz"

adjoint/                file/                   report/
define/                 mesh/                   solve/
display/                parallel/               surface/
exit                    plot/                   views/

> ;delete mesh interface
;/define/mesh-interface/delete contact_region

adjoint/                file/                   report/
define/                 mesh/                   solve/
display/                parallel/               surface/
exit                    plot/                   views/

> ;/define/operating-conditions/gravity/ y 0 -9.8 6

adjoint/                file/                   report/
define/                 mesh/                   solve/
display/                parallel/               surface/
exit                    plot/                   views/

> ;scale
;;/mesh/scale 0.125 0.125 0.125

adjoint/                file/                   report/
define/                 mesh/                   solve/
display/                parallel/               surface/
exit                    plot/                   views/

> ;general

adjoint/                file/                   report/
define/                 mesh/                   solve/
display/                parallel/               surface/
exit                    plot/                   views/

> /define/operating-conditions? invalid command [operating-conditions?]
y 0.0 -9.8 0.0

> 
adjoint/                file/                   report/
define/                 mesh/                   solve/
display/                parallel/               surface/
exit                    plot/                   views/

> /define/models steady? Steady solution model is already enabled.
y
invalid command [y]

> ;/define/models unsteady-1st-order? y

adjoint/                file/                   report/
define/                 mesh/                   solve/
display/                parallel/               surface/
exit                    plot/                   views/

> 
adjoint/                file/                   report/
define/                 mesh/                   solve/
display/                parallel/               surface/
exit                    plot/                   views/

> ;define viscous model

adjoint/                file/                   report/
define/                 mesh/                   solve/
display/                parallel/               surface/
exit                    plot/                   views/

> /define/models/viscous/ke-rng? y   ;;swirl?
/define/models/viscous/rng-swirl-model? yes

> 
adjoint/                file/                   report/
define/                 mesh/                   solve/
display/                parallel/               surface/
exit                    plot/                   views/

> 
adjoint/                file/                   report/
define/                 mesh/                   solve/
display/                parallel/               surface/
exit                    plot/                   views/

> ;/define/models/viscous/ke-rng-swirl-model? y
;/define/models/viscous/ke-rng/rng-swirl-model? y

adjoint/                file/                   report/
define/                 mesh/                   solve/
display/                parallel/               surface/
exit                    plot/                   views/

> 
adjoint/                file/                   report/
define/                 mesh/                   solve/
display/                parallel/               surface/
exit                    plot/                   views/

> ;/define/models/viscous/ke-realizable? y            

adjoint/                file/                   report/
define/                 mesh/                   solve/
display/                parallel/               surface/
exit                    plot/                   views/

> 
adjoint/                file/                   report/
define/                 mesh/                   solve/
display/                parallel/               surface/
exit                    plot/                   views/

> ; modify boundary-condition types

adjoint/                file/                   report/
define/                 mesh/                   solve/
display/                parallel/               surface/
exit                    plot/                   views/

> ;/define/boundary-conditions/zone-type contact_region-src wall
;/define/boundary-conditions/zone-type contact_region-trg wall
/define/boundary-conditions/zone-type i1 velocity-inlet

> /define/boundary-conditions/zone-type i2 velocity-inlet

> 
adjoint/                file/                   report/
define/                 mesh/                   solve/
display/                parallel/               surface/
exit                    plot/                   views/

> /define/boundary-conditions/zone-type o1 pressure-outlet

> /define/boundary-conditions/zone-type p1 pressure-outlet

> /define/boundary-conditions/zone-type p2 pressure-outlet

> 
adjoint/                file/                   report/
define/                 mesh/                   solve/
display/                parallel/               surface/
exit                    plot/                   views/

> ;set inlet boundary-conditions
/define/boundary-conditions/velocity-inlet (i2 i1)
i2  n n y y n 10 n 0 n n y 5 10

> /define/boundary-conditions/velocity-inlet (i2 i1)
i1  n n y y n 85 n 0 n n y 5 10

> /define/boundary-conditions/pressure-outlet (p2 p1 o1)
o1  y n -5000 n y n n y 5 10 y n n n

> /define/boundary-conditions/pressure-outlet (p2 p1 o1)
p1  y n 0 n y n n y 5 10 y n n n 

> /define/boundary-conditions/pressure-outlet (p2 p1 o1)
p2  y n 0 n y n n y 5 10 y n n n 

> 
adjoint/                file/                   report/
define/                 mesh/                   solve/
display/                parallel/               surface/
exit                    plot/                   views/

> ;;;;n y y n 0 y n 51.96 n 30 n 0 y n 1 n 1
;/define/boundary-conditions/copy-bc inlet front ()
;/define/boundary-conditions/wall lj y motion-bc-moving n n n n 11.11 1 0 0 n n 0 n 0.5

adjoint/                file/                   report/
define/                 mesh/                   solve/
display/                parallel/               surface/
exit                    plot/                   views/

> ; set solution controls
;/solve/set/p-v-coupling 21
;20: SIMPLE
;21: SIMPLEC
;22: PISO
;24: coupled
;/solve/set/under-relaxation pressure 0.5
;/solve/set/under-relaxation density 0.8
;/solve/set/under-relaxation body-force  0.8
;/solve/set/under-relaxation mom 0.5
;/solve/set/under-relaxation turb-viscosity 0.6
;/solve/set/under-relaxation k 0.6
;/solve/set/under-relaxation epsilon 0.6
;/solve/set/under-relaxation body-force 0.8 turb-viscosity 0.8 density 0.8
;/solve/set/discretization-scheme pressure 10 mom 1 k 1 epsilon 1

adjoint/                file/                   report/
define/                 mesh/                   solve/
display/                parallel/               surface/
exit                    plot/                   views/

> ;set pressure
;10:standard
;11:linear
;12:second order
;13:body force weighted
;14:presto!

adjoint/                file/                   report/
define/                 mesh/                   solve/
display/                parallel/               surface/
exit                    plot/                   views/

> ;set mom
;0:firdst order upwind
;1:second order upwind
;2:power law
;4:quick
;6:third-order muscl

adjoint/                file/                   report/
define/                 mesh/                   solve/
display/                parallel/               surface/
exit                    plot/                   views/

> ;set k
;0:firdst order upwind
;1:second order upwind
;2:power law
;4:quick
;6:third-order muscl

adjoint/                file/                   report/
define/                 mesh/                   solve/
display/                parallel/               surface/
exit                    plot/                   views/

> ;set epdst order upwind
;1:second order upwind
;2:power law
;4:silon
;0:firquick
;6:third-order muscl
;;;;;;;;;;;;;;;;;;;;;;;;;;;;;;;
;;;;;;;;;;;;;;;;;;;;;;;;;;;;;;set monitor point line surface
;;;;;;;;;;;;;;;;;;;;;;;;;;;;;;
/surface/point-surface/ cirPoint1 1.8 2 7

> /surface/point-surface/ cirPoint2 1.5 2 7

> /surface/point-surface/ cirPoint3 1 2 7

> /surface/point-surface/ cirPoint4 0 2 7

> /surface/point-surface/ cirPoint1_synYZ -1.8 2 7

> /surface/point-surface/ cirPoint2_synYZ -1.5 2 7

> /surface/point-surface/ cirPoint3_synYZ -1 2 7

> /surface/point-surface/ cirPoint1_synO -1.8 -2 7

> /surface/point-surface/ cirPoint2_synO -1.5 -2 7

> /surface/point-surface/ cirPoint3_synO -1 -2 7

> 
adjoint/                file/                   report/
define/                 mesh/                   solve/
display/                parallel/               surface/
exit                    plot/                   views/

> /surface/line-surface/ line_1 0 0 2 0 0 7

> 
adjoint/                file/                   report/
define/                 mesh/                   solve/
display/                parallel/               surface/
exit                    plot/                   views/

> /surface/line-surface/ line_2 1 2 2 1 2 7

> /surface/line-surface/ line_2_synYZ -1 2 2 -1 2 7

> 
adjoint/                file/                   report/
define/                 mesh/                   solve/
display/                parallel/               surface/
exit                    plot/                   views/

> /surface/line-surface/ line_3 1.5 2 2 1.5 2 7

> /surface/line-surface/ line_3_synYZ -1.5 2 2 -1.5 2 7

> 
adjoint/                file/                   report/
define/                 mesh/                   solve/
display/                parallel/               surface/
exit                    plot/                   views/

> 
adjoint/                file/                   report/
define/                 mesh/                   solve/
display/                parallel/               surface/
exit                    plot/                   views/

> 
adjoint/                file/                   report/
define/                 mesh/                   solve/
display/                parallel/               surface/
exit                    plot/                   views/

> 
adjoint/                file/                   report/
define/                 mesh/                   solve/
display/                parallel/               surface/
exit                    plot/                   views/

> 
adjoint/                file/                   report/
define/                 mesh/                   solve/
display/                parallel/               surface/
exit                    plot/                   views/

> /surface/plane-slice/ YuanPian_0_0_3 0 0 1 3

> /surface/plane-slice/ YuanPian_0_0_4 0 0 1 4

> /surface/plane-slice/ YuanPian_0_0_5 0 0 1 5

> /surface/plane-slice/ YuanPian_0_0_6 0 0 1 6

> /surface/plane-slice/ YuanPian_0_0_7 0 0 1 7

> 
adjoint/                file/                   report/
define/                 mesh/                   solve/
display/                parallel/               surface/
exit                    plot/                   views/

> /surface/transform-surface/ 10 ()
Center Of Rotation
 0 0 0 
Angle of Rotation
0 0 0 
Translation Distance
0 0 0 0 xiKou 

> 
adjoint/                file/                   report/
define/                 mesh/                   solve/
display/                parallel/               surface/
exit                    plot/                   views/

> 
adjoint/                file/                   report/
define/                 mesh/                   solve/
display/                parallel/               surface/
exit                    plot/                   views/

> 
adjoint/                file/                   report/
define/                 mesh/                   solve/
display/                parallel/               surface/
exit                    plot/                   views/

> 
adjoint/                file/                   report/
define/                 mesh/                   solve/
display/                parallel/               surface/
exit                    plot/                   views/

> ;/solve/monitors/surface/set-monitor miao_V_huan_2 ? velocity-magnitude miao31 miao32 miao33 miao34 miao35 miao36   n n y miao_V_huan_2 100

adjoint/                file/                   report/
define/                 mesh/                   solve/
display/                parallel/               surface/
exit                    plot/                   views/

> 
adjoint/                file/                   report/
define/                 mesh/                   solve/
display/                parallel/               surface/
exit                    plot/                   views/

> /solve/monitors/surface/set-monitor cirPoint1  "Sum" velocity-magnitude cirPoint1 () n n y E:\LGF\Sim\task\0825_1\P_85\txtData\cirPoint1_-5000.txt 100
Information: Converting monitor cirpoint1 to report definition.

> /solve/monitors/surface/set-monitor cirPoint2  "Sum" velocity-magnitude cirPoint2 () n n y E:\LGF\Sim\task\0825_1\P_85\txtData\cirPoint2_-5000.txt 100
Information: Converting monitor cirpoint2 to report definition.

> /solve/monitors/surface/set-monitor cirPoint3  "Sum" velocity-magnitude cirPoint3 () n n y E:\LGF\Sim\task\0825_1\P_85\txtData\cirPoint3_-5000.txt 100
Information: Converting monitor cirpoint3 to report definition.

> /solve/monitors/surface/set-monitor cirPoint1-2  "Sum" velocity-magnitude cirPoint1 cirPoint2 () n n y E:\LGF\Sim\task\0825_1\P_85\txtData\cirPoint1-2_-5000.txt 100
Information: Converting monitor cirpoint1-2 to report definition.

> 
adjoint/                file/                   report/
define/                 mesh/                   solve/
display/                parallel/               surface/
exit                    plot/                   views/

> /solve/monitors/surface/set-monitor line_1   "Facet Average" velocity-magnitude line_1 () n n y E:\LGF\Sim\task\0825_1\P_85\txtData\line_1_-5000.txt 100
Information: Converting monitor line_1 to report definition.

> /solve/monitors/surface/set-monitor line_2   "Facet Average" velocity-magnitude line_2 () n n y E:\LGF\Sim\task\0825_1\P_85\txtData\line_2_-5000.txt 100
Information: Converting monitor line_2 to report definition.

> 
adjoint/                file/                   report/
define/                 mesh/                   solve/
display/                parallel/               surface/
exit                    plot/                   views/

> /solve/monitors/surface/set-monitor YuanPian_0_0_5   "Facet Average" velocity-magnitude YuanPian_0_0_5 () n n y E:\LGF\Sim\task\0825_1\P_85\txtData\YuanPian_0_0_5_-5000.txt 100
Information: Converting monitor yuanpian_0_0_5 to report definition.

> 
adjoint/                file/                   report/
define/                 mesh/                   solve/
display/                parallel/               surface/
exit                    plot/                   views/

> /solve/monitors/surface/set-monitor xiKou   "Facet Average" velocity-magnitude xiKou () n n y E:\LGF\Sim\task\0825_1\P_85\txtData\xiKou_-5000.txt 100
Information: Converting monitor xikou to report definition.

> 
adjoint/                file/                   report/
define/                 mesh/                   solve/
display/                parallel/               surface/
exit                    plot/                   views/

> ;/solve/monitors/surface/set-monitor miao_V_huan_4  "Sum" velocity-magnitude miao37 () n n y E:\LGF\Sim\task\0825_1\P_85\txtData\miao_V_huan_4_-5000.txt 100

adjoint/                file/                   report/
define/                 mesh/                   solve/
display/                parallel/               surface/
exit                    plot/                   views/

> ;set monitor residuals
/solve/monitors/residual/convergence-criteria 0.000001 0.000001 0.000001 0.000001 0.000001 0.000001

> 
adjoint/                file/                   report/
define/                 mesh/                   solve/
display/                parallel/               surface/
exit                    plot/                   views/

> ;set force monitors
;compile C
;/define/user-defined/compiled-functions/compile libudf yes FandMmonitor.c "" "" 
; load C
;/define/user-defined/compiled-functions/load libudf
;;    set hook
;/define/user-defined/function-hooks/execute-at-end "force_and_moment_print::libudf" "" 

adjoint/                file/                   report/
define/                 mesh/                   solve/
display/                parallel/               surface/
exit                    plot/                   views/

> ;/solve/monitors/force/set-drag-monitor cx y che1 zxj1 zxj2 che2 zxj3 zxj4 che3 zxj5 zxj6 () n y "cx-CRH380A" n y 1 0 0
;/solve/monitors/force/set-drag-monitor cy y che1 zxj1 zxj2 che2 zxj3 zxj4 che3 zxj5 zxj6 () n y "cy-1D-30" n y 0 1 0
;/solve/monitors/force/set-drag-monitor cz y che1 zxj1 zxj2 che2 zxj3 zxj4 che3 zxj5 zxj6 () n y "cz-CRH380A" n y 0 0 1

adjoint/                file/                   report/
define/                 mesh/                   solve/
display/                parallel/               surface/
exit                    plot/                   views/

> ;/solve/monitors/force/set-moment-monitor mx y che1 zxj1 zxj2 fd1 che2 zxj3 zxj4 fd2 che3 zxj5 zxj6 () n y "mx-1D-30" n y 0 0 0 1 0 0
;/solve/monitors/force/set-moment-monitor my y che1 zxj1 zxj2 fd1 che2 zxj3 zxj4 fd2 che3 zxj5 zxj6 () n y "my-1D-30" n y 0 0 0 0 1 0
;/solve/monitors/force/set-moment-monitor mz y che1 zxj1 zxj2 fd1 che2 zxj3 zxj4 fd2 che3 zxj5 zxj6 () n y "mz-1D-30" n y 0 0 0 0 0 1

adjoint/                file/                   report/
define/                 mesh/                   solve/
display/                parallel/               surface/
exit                    plot/                   views/

> 
adjoint/                file/                   report/
define/                 mesh/                   solve/
display/                parallel/               surface/
exit                    plot/                   views/

> ;init solve set
/solve/initialize/reference-frame Current Reference Frame : Relative to Cell Zoneabsolute

> /solve/initialize/initialize-flow

> ;solve/set/time-step 0.00005
/solve/iterate 10000

  iter  continuity  x-velocity  y-velocity  z-velocity           k     epsilon     time/iter
     1  1.0000e+00  1.0570e+04  9.2552e+02  1.6522e+04  2.1113e+00  1.8120e+03  2:46:39 9999

 turbulent viscosity limited to viscosity ratio of 1.000000e+05 in 3 cells 

 Reversed flow on 4385 faces (100.0% area) of pressure-outlet 24.

 Reversed flow on 2646 faces (100.0% area) of pressure-outlet 25.
     2  5.9401e-01  9.9898e-03  8.6195e-03  2.6169e-02  2.8910e-01  2.5153e+00  3:19:58 9998

 turbulent viscosity limited to viscosity ratio of 1.000000e+05 in 14 cells 

 Reversed flow on 29 faces (4.9% area) of pressure-outlet 22.

 Reversed flow on 3736 faces (83.0% area) of pressure-outlet 24.
     3  7.3055e-01  2.6021e-02  2.3435e-02  3.2553e-02  3.6275e-01  8.7442e-01  3:46:36 9997

 Reversed flow on 30 faces (5.5% area) of pressure-outlet 22.

 Reversed flow on 2511 faces (64.9% area) of pressure-outlet 24.

 Reversed flow on 2436 faces (89.7% area) of pressure-outlet 25.
     4  5.5578e-01  1.0592e-02  1.0185e-02  1.7499e-02  1.5396e-01  5.9207e-01  4:07:54 9996

 Reversed flow on 29 faces (5.5% area) of pressure-outlet 22.

 Reversed flow on 2303 faces (60.0% area) of pressure-outlet 24.

 Reversed flow on 18 faces (0.2% area) of pressure-outlet 25.
     5  5.4763e-01  1.1469e-02  1.0609e-02  1.0796e-02  9.7758e-02  4.7223e-01  4:24:56 9995

 Reversed flow on 7 faces (1.4% area) of pressure-outlet 22.

 Reversed flow on 3441 faces (79.0% area) of pressure-outlet 24.

 Reversed flow on 566 faces (17.0% area) of pressure-outlet 25.
     6  4.4471e-01  8.3958e-03  7.8977e-03  8.8132e-03  5.3004e-02  3.1956e-01  4:38:33 9994

 Reversed flow on 3 faces (0.6% area) of pressure-outlet 22.

 Reversed flow on 2830 faces (70.2% area) of pressure-outlet 24.

 Reversed flow on 98 faces (1.2% area) of pressure-outlet 25.
     7  3.9884e-01  6.9904e-03  6.3814e-03  6.0371e-03  2.9478e-02  1.5301e-01  4:49:26 9993

 Reversed flow on 3334 faces (79.2% area) of pressure-outlet 24.

 Reversed flow on 911 faces (31.3% area) of pressure-outlet 25.
     8  3.5846e-01  6.3421e-03  5.7413e-03  5.6720e-03  2.0837e-02  1.2777e-01  4:58:09 9992

 Reversed flow on 3186 faces (78.1% area) of pressure-outlet 24.

 Reversed flow on 992 faces (38.9% area) of pressure-outlet 25.
     9  3.1849e-01  5.3340e-03  4.7405e-03  4.5547e-03  1.6850e-02  1.0296e-01  4:31:48 9991

 turbulent viscosity limited to viscosity ratio of 1.000000e+05 in 6725 cells 

 Reversed flow on 3942 faces (91.5% area) of pressure-outlet 24.

 Reversed flow on 1099 faces (45.9% area) of pressure-outlet 25.
    10  2.9906e-01  4.9452e-03  4.4981e-03  4.3039e-03  1.2407e-02  7.4207e-02  4:44:01 9990

 turbulent viscosity limited to viscosity ratio of 1.000000e+05 in 9362 cells 

 Reversed flow on 4125 faces (94.4% area) of pressure-outlet 24.

 Reversed flow on 1075 faces (51.2% area) of pressure-outlet 25.
    11  2.6811e-01  4.2060e-03  3.8718e-03  3.9053e-03  1.0568e-02  5.8154e-02  4:53:47 9989

 Reversed flow on 4284 faces (97.3% area) of pressure-outlet 24.

 Reversed flow on 1183 faces (56.9% area) of pressure-outlet 25.

  iter  continuity  x-velocity  y-velocity  z-velocity           k     epsilon     time/iter
    12  2.4682e-01  3.9167e-03  3.7344e-03  3.6062e-03  8.0012e-03  3.5754e-02  4:28:18 9988

 turbulent viscosity limited to viscosity ratio of 1.000000e+05 in 1 cells 

 Reversed flow on 4330 faces (98.5% area) of pressure-outlet 24.

 Reversed flow on 1338 faces (64.3% area) of pressure-outlet 25.
    13  2.2276e-01  3.4442e-03  3.3589e-03  3.1121e-03  6.5580e-03  2.5455e-02  4:41:12 9987

 Reversed flow on 4375 faces (99.7% area) of pressure-outlet 24.

 Reversed flow on 1402 faces (67.4% area) of pressure-outlet 25.
    14  2.0686e-01  3.1674e-03  3.1404e-03  2.8581e-03  6.6413e-03  2.3331e-02  4:51:30 9986

 Reversed flow on 4381 faces (99.9% area) of pressure-outlet 24.

 Reversed flow on 1290 faces (62.5% area) of pressure-outlet 25.
    15  1.9357e-01  2.9390e-03  2.9237e-03  2.6608e-03  6.7120e-03  2.2639e-02  4:59:45 9985

 Reversed flow on 4377 faces (99.8% area) of pressure-outlet 24.

 Reversed flow on 1176 faces (57.2% area) of pressure-outlet 25.
    16  1.8501e-01  2.8901e-03  2.8565e-03  2.5894e-03  6.7851e-03  2.2407e-02  4:33:03 9984

 Reversed flow on 4381 faces (99.9% area) of pressure-outlet 24.

 Reversed flow on 1184 faces (57.8% area) of pressure-outlet 25.
    17  1.7864e-01  2.8081e-03  2.7460e-03  2.5200e-03  6.5311e-03  2.2171e-02  4:44:59 9983

 Reversed flow on 4384 faces (100.0% area) of pressure-outlet 24.

 Reversed flow on 1254 faces (60.9% area) of pressure-outlet 25.
    18  1.7300e-01  2.7389e-03  2.6521e-03  2.4790e-03  5.8677e-03  2.1263e-02  4:21:14 9982

 Reversed flow on 4385 faces (100.0% area) of pressure-outlet 24.

 Reversed flow on 1268 faces (61.5% area) of pressure-outlet 25.
    19  1.6529e-01  2.5702e-03  2.4703e-03  2.3439e-03  5.1907e-03  1.9356e-02  4:35:30 9981

 Reversed flow on 4385 faces (100.0% area) of pressure-outlet 24.

 Reversed flow on 1265 faces (61.2% area) of pressure-outlet 25.
    20  1.5774e-01  2.4580e-03  2.3448e-03  2.2390e-03  4.7064e-03  1.7844e-02  4:46:55 9980

 Reversed flow on 4385 faces (100.0% area) of pressure-outlet 24.

 Reversed flow on 1256 faces (60.7% area) of pressure-outlet 25.
    21  1.5084e-01  2.3598e-03  2.2529e-03  2.1376e-03  4.3047e-03  1.7136e-02  4:22:46 9979

 Reversed flow on 4385 faces (100.0% area) of pressure-outlet 24.

 Reversed flow on 1254 faces (60.5% area) of pressure-outlet 25.
    22  1.4548e-01  2.2885e-03  2.1985e-03  2.0715e-03  3.9508e-03  1.5943e-02  4:36:43 9978

 Reversed flow on 4385 faces (100.0% area) of pressure-outlet 24.

 Reversed flow on 1264 faces (61.0% area) of pressure-outlet 25.

  iter  continuity  x-velocity  y-velocity  z-velocity           k     epsilon     time/iter
    23  1.4164e-01  2.2430e-03  2.1574e-03  2.0284e-03  3.5966e-03  1.4247e-02  4:14:36 9977

 Reversed flow on 4385 faces (100.0% area) of pressure-outlet 24.

 Reversed flow on 1294 faces (62.4% area) of pressure-outlet 25.
    24  1.3915e-01  2.2146e-03  2.1303e-03  2.0028e-03  3.3177e-03  1.2668e-02  4:30:10 9976

 Reversed flow on 4385 faces (100.0% area) of pressure-outlet 24.

 Reversed flow on 1331 faces (64.0% area) of pressure-outlet 25.
    25  1.3732e-01  2.1860e-03  2.1141e-03  1.9830e-03  3.0882e-03  1.1280e-02  4:09:22 9975

 Reversed flow on 4385 faces (100.0% area) of pressure-outlet 24.

 Reversed flow on 1367 faces (65.6% area) of pressure-outlet 25.
    26  1.3631e-01  2.1610e-03  2.0955e-03  1.9684e-03  2.8968e-03  1.0030e-02  4:25:58 9974

 Reversed flow on 4385 faces (100.0% area) of pressure-outlet 24.

 Reversed flow on 1385 faces (66.5% area) of pressure-outlet 25.
    27  1.3596e-01  2.1376e-03  2.0786e-03  1.9528e-03  2.7501e-03  8.9880e-03  4:06:00 9973

 Reversed flow on 4385 faces (100.0% area) of pressure-outlet 24.

 Reversed flow on 1403 faces (67.3% area) of pressure-outlet 25.
    28  1.3603e-01  2.1180e-03  2.0555e-03  1.9397e-03  2.6443e-03  8.3239e-03  3:50:01 9972

 Reversed flow on 4385 faces (100.0% area) of pressure-outlet 24.

 Reversed flow on 1419 faces (68.0% area) of pressure-outlet 25.
    29  1.3601e-01  2.0953e-03  2.0297e-03  1.9104e-03  2.5438e-03  7.8003e-03  4:10:28 9971

 Reversed flow on 4385 faces (100.0% area) of pressure-outlet 24.

 Reversed flow on 1444 faces (69.2% area) of pressure-outlet 25.
    30  1.3594e-01  2.0632e-03  2.0064e-03  1.8808e-03  2.4483e-03  7.3474e-03  4:26:49 9970

 Reversed flow on 4385 faces (100.0% area) of pressure-outlet 24.

 Reversed flow on 1459 faces (70.0% area) of pressure-outlet 25.
    31  1.3564e-01  2.0185e-03  1.9745e-03  1.8405e-03  2.3855e-03  7.0406e-03  4:06:40 9969

 Reversed flow on 4385 faces (100.0% area) of pressure-outlet 24.

 Reversed flow on 1470 faces (70.4% area) of pressure-outlet 25.
    32  1.3485e-01  1.9710e-03  1.9371e-03  1.8014e-03  2.3356e-03  6.9098e-03  4:23:46 9968

 turbulent viscosity limited to viscosity ratio of 1.000000e+05 in 1 cells 

 Reversed flow on 4385 faces (100.0% area) of pressure-outlet 24.

 Reversed flow on 1480 faces (70.9% area) of pressure-outlet 25.
    33  1.3388e-01  1.9287e-03  1.9007e-03  1.7665e-03  2.2958e-03  6.8311e-03  4:37:26 9967

 turbulent viscosity limited to viscosity ratio of 1.000000e+05 in 2 cells 

 Reversed flow on 4385 faces (100.0% area) of pressure-outlet 24.

 Reversed flow on 1490 faces (71.4% area) of pressure-outlet 25.

  iter  continuity  x-velocity  y-velocity  z-velocity           k     epsilon     time/iter
    34  1.3328e-01  1.8999e-03  1.8629e-03  1.7415e-03  2.2811e-03  6.9426e-03  4:15:09 9966

 turbulent viscosity limited to viscosity ratio of 1.000000e+05 in 4 cells 

 Reversed flow on 4385 faces (100.0% area) of pressure-outlet 24.

 Reversed flow on 1509 faces (72.3% area) of pressure-outlet 25.
    35  1.3284e-01  1.8831e-03  1.8334e-03  1.7255e-03  2.3001e-03  7.1298e-03  4:30:32 9965

 turbulent viscosity limited to viscosity ratio of 1.000000e+05 in 14 cells 

 Reversed flow on 4385 faces (100.0% area) of pressure-outlet 24.

 Reversed flow on 1515 faces (72.6% area) of pressure-outlet 25.
    36  1.3256e-01  1.8773e-03  1.8172e-03  1.7226e-03  2.3446e-03  7.3940e-03  4:42:50 9964

 turbulent viscosity limited to viscosity ratio of 1.000000e+05 in 33 cells 

 Reversed flow on 4 faces (0.8% area) of pressure-outlet 22.

 Reversed flow on 4385 faces (100.0% area) of pressure-outlet 24.

 Reversed flow on 1524 faces (73.0% area) of pressure-outlet 25.
    37  1.3282e-01  1.8949e-03  1.8222e-03  1.7318e-03  2.4289e-03  7.8758e-03  4:19:27 9963

 turbulent viscosity limited to viscosity ratio of 1.000000e+05 in 30 cells 

 Reversed flow on 6 faces (1.1% area) of pressure-outlet 22.

 Reversed flow on 4385 faces (100.0% area) of pressure-outlet 24.

 Reversed flow on 1522 faces (73.0% area) of pressure-outlet 25.
    38  1.3370e-01  1.9308e-03  1.8457e-03  1.7582e-03  2.5640e-03  8.2831e-03  4:33:57 9962

 turbulent viscosity limited to viscosity ratio of 1.000000e+05 in 40 cells 

 Reversed flow on 12 faces (2.0% area) of pressure-outlet 22.

 Reversed flow on 4385 faces (100.0% area) of pressure-outlet 24.

 Reversed flow on 1534 faces (73.5% area) of pressure-outlet 25.
    39  1.3531e-01  1.9902e-03  1.8900e-03  1.8115e-03  2.7599e-03  8.9348e-03  4:45:33 9961

 turbulent viscosity limited to viscosity ratio of 1.000000e+05 in 29 cells 

 Reversed flow on 17 faces (2.7% area) of pressure-outlet 22.

 Reversed flow on 4385 faces (100.0% area) of pressure-outlet 24.

 Reversed flow on 1537 faces (73.6% area) of pressure-outlet 25.
    40  1.3760e-01  2.0733e-03  1.9642e-03  1.8854e-03  3.0189e-03  9.9015e-03  4:21:37 9960

 turbulent viscosity limited to viscosity ratio of 1.000000e+05 in 25 cells 

 Reversed flow on 22 faces (3.5% area) of pressure-outlet 22.

 Reversed flow on 4385 faces (100.0% area) of pressure-outlet 24.

 Reversed flow on 1541 faces (73.8% area) of pressure-outlet 25.
    41  1.4107e-01  2.1931e-03  2.0662e-03  1.9824e-03  3.3681e-03  1.1278e-02  4:02:28 9959

 turbulent viscosity limited to viscosity ratio of 1.000000e+05 in 427 cells 

 Reversed flow on 28 faces (4.4% area) of pressure-outlet 22.

 Reversed flow on 4385 faces (100.0% area) of pressure-outlet 24.

 Reversed flow on 1541 faces (73.8% area) of pressure-outlet 25.
    42  1.4586e-01  2.3552e-03  2.2137e-03  2.1166e-03  3.8058e-03  1.2793e-02  4:20:20 9958

 turbulent viscosity limited to viscosity ratio of 1.000000e+05 in 9310 cells 

 Reversed flow on 32 faces (5.0% area) of pressure-outlet 22.

 Reversed flow on 4385 faces (100.0% area) of pressure-outlet 24.

 Reversed flow on 1545 faces (73.9% area) of pressure-outlet 25.
    43  1.5163e-01  2.5603e-03  2.3943e-03  2.2925e-03  1.0318e-02  1.4821e-01  4:34:38 9957
        Stabilizing pressure coupled to enhance linear solver robustness.

 turbulent viscosity limited to viscosity ratio of 1.000000e+05 in 15620 cells 

 Reversed flow on 37 faces (5.7% area) of pressure-outlet 22.

 Reversed flow on 4383 faces (99.9% area) of pressure-outlet 24.

 Reversed flow on 1553 faces (74.2% area) of pressure-outlet 25.
    44  1.6212e-01  3.0519e-03  2.7970e-03  2.8067e-03  9.3253e-02  1.9121e+02  7:31:59 9956
        Stabilizing pressure coupled to enhance linear solver robustness.

 turbulent viscosity limited to viscosity ratio of 1.000000e+05 in 30370 cells 

 Reversed flow on 43 faces (6.8% area) of pressure-outlet 22.

 Reversed flow on 4121 faces (94.1% area) of pressure-outlet 24.

 Reversed flow on 1563 faces (74.7% area) of pressure-outlet 25.

  iter  continuity  x-velocity  y-velocity  z-velocity           k     epsilon     time/iter
    45  1.7780e-01  3.5488e-03  3.3118e-03  7.4196e-03  6.1464e-01  4.2987e+02 13:12:56 9955
        Stabilizing pressure coupled to enhance linear solver robustness.

 turbulent viscosity limited to viscosity ratio of 1.000000e+05 in 14548 cells 

 Reversed flow on 44 faces (6.9% area) of pressure-outlet 22.

 Reversed flow on 4047 faces (92.3% area) of pressure-outlet 24.

 Reversed flow on 1564 faces (74.8% area) of pressure-outlet 25.
    46  2.0710e-01  1.9733e-02  1.7828e-02  2.0004e-02  9.4549e-01  1.3676e+00 16:06:05 9954

 turbulent viscosity limited to viscosity ratio of 1.000000e+05 in 10113 cells 

 Reversed flow on 46 faces (7.2% area) of pressure-outlet 22.

 Reversed flow on 3909 faces (88.6% area) of pressure-outlet 24.

 Reversed flow on 1490 faces (71.4% area) of pressure-outlet 25.
    47  2.1488e-01  4.9696e-03  5.0300e-03  5.0247e-03  8.1467e-01  7.2799e-01 13:25:58 9953

 turbulent viscosity limited to viscosity ratio of 1.000000e+05 in 6365 cells 

 Reversed flow on 49 faces (7.7% area) of pressure-outlet 22.

 Reversed flow on 3614 faces (81.4% area) of pressure-outlet 24.

 Reversed flow on 1562 faces (74.7% area) of pressure-outlet 25.
    48  2.2255e-01  4.4685e-03  4.3564e-03  4.4260e-03  5.3404e-01  7.3729e-01 11:17:53 9952

 turbulent viscosity limited to viscosity ratio of 1.000000e+05 in 2064 cells 

 Reversed flow on 53 faces (8.3% area) of pressure-outlet 22.

 Reversed flow on 3132 faces (70.5% area) of pressure-outlet 24.

 Reversed flow on 1545 faces (74.0% area) of pressure-outlet 25.
    49  2.3136e-01  4.0825e-03  4.0635e-03  4.0546e-03  2.5400e-01  5.7911e-01 10:08:36 9951

 turbulent viscosity limited to viscosity ratio of 1.000000e+05 in 745 cells 

 Reversed flow on 53 faces (8.4% area) of pressure-outlet 22.

 Reversed flow on 3439 faces (77.7% area) of pressure-outlet 24.

 Reversed flow on 1541 faces (73.8% area) of pressure-outlet 25.
    50  2.3420e-01  3.7743e-03  3.7442e-03  3.8698e-03  1.1331e-01  3.9411e-01  8:40:00 9950

 turbulent viscosity limited to viscosity ratio of 1.000000e+05 in 268 cells 

 Reversed flow on 59 faces (9.5% area) of pressure-outlet 22.

 Reversed flow on 3945 faces (89.7% area) of pressure-outlet 24.

 Reversed flow on 1537 faces (73.6% area) of pressure-outlet 25.
    51  2.3987e-01  3.6020e-03  3.5926e-03  3.6314e-03  5.3561e-02  1.6676e-01  7:29:07 9949

 turbulent viscosity limited to viscosity ratio of 1.000000e+05 in 63 cells 

 Reversed flow on 62 faces (10.0% area) of pressure-outlet 22.

 Reversed flow on 4002 faces (91.1% area) of pressure-outlet 24.

 Reversed flow on 1539 faces (73.7% area) of pressure-outlet 25.
    52  2.4629e-01  3.4623e-03  3.4815e-03  3.5165e-03  2.2964e-02  8.5223e-02  7:38:44 9948

 turbulent viscosity limited to viscosity ratio of 1.000000e+05 in 88 cells 

 Reversed flow on 60 faces (9.7% area) of pressure-outlet 22.

 Reversed flow on 3864 faces (88.0% area) of pressure-outlet 24.

 Reversed flow on 1543 faces (73.8% area) of pressure-outlet 25.
    53  2.5081e-01  3.4470e-03  3.5077e-03  3.5420e-03  1.3973e-02  4.2744e-02  6:40:07 9947

 turbulent viscosity limited to viscosity ratio of 1.000000e+05 in 77 cells 

 Reversed flow on 50 faces (8.1% area) of pressure-outlet 22.

 Reversed flow on 3821 faces (86.8% area) of pressure-outlet 24.

 Reversed flow on 1555 faces (74.4% area) of pressure-outlet 25.
    54  2.5185e-01  3.4470e-03  3.4657e-03  3.5323e-03  1.1119e-02  3.2010e-02  6:26:22 9946

 turbulent viscosity limited to viscosity ratio of 1.000000e+05 in 666 cells 

 Reversed flow on 49 faces (7.9% area) of pressure-outlet 22.

 Reversed flow on 3818 faces (86.8% area) of pressure-outlet 24.

 Reversed flow on 1566 faces (75.0% area) of pressure-outlet 25.
    55  2.5068e-01  3.4094e-03  3.3797e-03  3.4796e-03  9.5834e-03  2.6324e-02  6:48:30 9945

 turbulent viscosity limited to viscosity ratio of 1.000000e+05 in 123 cells 

 Reversed flow on 43 faces (6.8% area) of pressure-outlet 22.

 Reversed flow on 3772 faces (85.7% area) of pressure-outlet 24.

 Reversed flow on 1584 faces (75.7% area) of pressure-outlet 25.

  iter  continuity  x-velocity  y-velocity  z-velocity           k     epsilon     time/iter
    56  2.4834e-01  3.3974e-03  3.2958e-03  3.4559e-03  9.4870e-03  2.4185e-02  6:33:04 9944

 turbulent viscosity limited to viscosity ratio of 1.000000e+05 in 3 cells 

 Reversed flow on 21 faces (3.5% area) of pressure-outlet 22.

 Reversed flow on 3722 faces (84.4% area) of pressure-outlet 24.

 Reversed flow on 1598 faces (76.4% area) of pressure-outlet 25.
    57  2.4352e-01  3.3204e-03  3.1841e-03  3.3757e-03  8.4434e-03  2.2296e-02  6:20:43 9943

 Reversed flow on 14 faces (2.4% area) of pressure-outlet 22.

 Reversed flow on 3737 faces (84.8% area) of pressure-outlet 24.

 Reversed flow on 1617 faces (77.2% area) of pressure-outlet 25.
    58  2.4111e-01  3.2672e-03  3.0996e-03  3.2706e-03  7.3342e-03  1.9953e-02  5:37:41 9942

 Reversed flow on 10 faces (1.8% area) of pressure-outlet 22.

 Reversed flow on 3819 faces (86.6% area) of pressure-outlet 24.

 Reversed flow on 1635 faces (77.9% area) of pressure-outlet 25.
    59  2.3987e-01  3.2027e-03  3.0223e-03  3.1513e-03  6.4615e-03  1.7645e-02  5:36:23 9941

 Reversed flow on 5 faces (1.0% area) of pressure-outlet 22.

 Reversed flow on 3935 faces (88.9% area) of pressure-outlet 24.

 Reversed flow on 1644 faces (78.3% area) of pressure-outlet 25.
    60  2.3532e-01  3.0406e-03  2.8619e-03  2.9591e-03  5.7280e-03  1.6010e-02  5:02:13 9940

 Reversed flow on 4007 faces (90.6% area) of pressure-outlet 24.

 Reversed flow on 1660 faces (79.0% area) of pressure-outlet 25.
    61  2.3014e-01  2.9136e-03  2.7433e-03  2.8120e-03  5.1323e-03  1.4379e-02  4:34:53 9939

 Reversed flow on 4038 faces (91.3% area) of pressure-outlet 24.

 Reversed flow on 1668 faces (79.2% area) of pressure-outlet 25.
    62  2.2544e-01  2.8001e-03  2.6449e-03  2.6829e-03  4.6296e-03  1.2762e-02  4:46:08 9938

 Reversed flow on 4087 faces (92.5% area) of pressure-outlet 24.

 Reversed flow on 1680 faces (79.7% area) of pressure-outlet 25.
    63  2.2026e-01  2.6781e-03  2.5456e-03  2.5597e-03  4.2453e-03  1.1347e-02  4:55:08 9937

 Reversed flow on 4145 faces (94.0% area) of pressure-outlet 24.

 Reversed flow on 1679 faces (79.6% area) of pressure-outlet 25.
    64  2.1494e-01  2.5619e-03  2.4511e-03  2.4316e-03  4.0004e-03  1.0496e-02  4:29:12 9936

 Reversed flow on 4200 faces (95.3% area) of pressure-outlet 24.

 Reversed flow on 1678 faces (79.6% area) of pressure-outlet 25.
    65  2.0982e-01  2.4483e-03  2.3538e-03  2.3083e-03  3.8157e-03  9.6133e-03  4:08:27 9935

 Reversed flow on 4274 faces (97.0% area) of pressure-outlet 24.

 Reversed flow on 1672 faces (79.2% area) of pressure-outlet 25.
    66  2.0435e-01  2.3306e-03  2.2531e-03  2.1937e-03  3.6411e-03  8.9335e-03  4:58:05 9934

 Reversed flow on 4328 faces (98.5% area) of pressure-outlet 24.

 Reversed flow on 1662 faces (78.8% area) of pressure-outlet 25.

  iter  continuity  x-velocity  y-velocity  z-velocity           k     epsilon     time/iter
    67  1.9863e-01  2.2059e-03  2.1505e-03  2.0842e-03  3.4352e-03  8.4218e-03  5:04:40 9933

 Reversed flow on 4381 faces (99.9% area) of pressure-outlet 24.

 Reversed flow on 1649 faces (78.3% area) of pressure-outlet 25.
    68  1.9360e-01  2.0955e-03  2.0509e-03  1.9817e-03  3.2163e-03  8.0753e-03  4:36:49 9932

 Reversed flow on 4384 faces (100.0% area) of pressure-outlet 24.

 Reversed flow on 1635 faces (77.7% area) of pressure-outlet 25.
    69  1.8902e-01  1.9918e-03  1.9665e-03  1.8804e-03  2.9747e-03  7.4730e-03  4:47:38 9931

 Reversed flow on 4385 faces (100.0% area) of pressure-outlet 24.

 Reversed flow on 1625 faces (77.3% area) of pressure-outlet 25.
    70  1.8486e-01  1.8991e-03  1.8908e-03  1.7807e-03  2.7770e-03  6.9094e-03  4:56:17 9930

 Reversed flow on 4385 faces (100.0% area) of pressure-outlet 24.

 Reversed flow on 1607 faces (76.5% area) of pressure-outlet 25.
    71  1.8035e-01  1.8233e-03  1.8212e-03  1.6900e-03  2.5772e-03  6.4628e-03  4:30:06 9929

 Reversed flow on 4385 faces (100.0% area) of pressure-outlet 24.

 Reversed flow on 1604 faces (76.3% area) of pressure-outlet 25.
    72  1.7592e-01  1.7605e-03  1.7552e-03  1.6128e-03  2.4212e-03  6.2683e-03  4:42:15 9928

 Reversed flow on 4385 faces (100.0% area) of pressure-outlet 24.

 Reversed flow on 1600 faces (76.2% area) of pressure-outlet 25.
    73  1.7134e-01  1.7109e-03  1.6947e-03  1.5438e-03  2.2464e-03  5.7927e-03  4:51:57 9927

 Reversed flow on 4385 faces (100.0% area) of pressure-outlet 24.

 Reversed flow on 1593 faces (75.9% area) of pressure-outlet 25.
    74  1.6724e-01  1.6691e-03  1.6393e-03  1.4904e-03  2.1523e-03  5.5503e-03  4:26:38 9926

 Reversed flow on 4385 faces (100.0% area) of pressure-outlet 24.

 Reversed flow on 1589 faces (75.8% area) of pressure-outlet 25.
    75  1.6314e-01  1.6411e-03  1.5867e-03  1.4492e-03  2.0910e-03  5.4703e-03  4:06:22 9925

 Reversed flow on 4385 faces (100.0% area) of pressure-outlet 24.

 Reversed flow on 1597 faces (76.1% area) of pressure-outlet 25.
    76  1.5976e-01  1.6172e-03  1.5538e-03  1.4190e-03  2.0840e-03  5.4048e-03  3:50:09 9924

 Reversed flow on 4385 faces (100.0% area) of pressure-outlet 24.

 Reversed flow on 1595 faces (76.1% area) of pressure-outlet 25.
    77  1.5772e-01  1.6127e-03  1.5408e-03  1.4035e-03  2.0838e-03  5.4502e-03  3:37:11 9923

 Reversed flow on 4385 faces (100.0% area) of pressure-outlet 24.

 Reversed flow on 1589 faces (75.8% area) of pressure-outlet 25.

  iter  continuity  x-velocity  y-velocity  z-velocity           k     epsilon     time/iter
    78  1.5671e-01  1.6085e-03  1.5510e-03  1.4030e-03  2.0904e-03  5.5331e-03  3:26:48 9922

 Reversed flow on 4385 faces (100.0% area) of pressure-outlet 24.

 Reversed flow on 1587 faces (75.7% area) of pressure-outlet 25.
    79  1.5608e-01  1.6245e-03  1.5646e-03  1.4106e-03  2.1353e-03  5.8799e-03  3:51:34 9921

 Reversed flow on 4385 faces (100.0% area) of pressure-outlet 24.

 Reversed flow on 1586 faces (75.7% area) of pressure-outlet 25.
    80  1.5608e-01  1.6346e-03  1.5863e-03  1.4269e-03  2.1020e-03  5.6582e-03  4:11:22 9920

 turbulent viscosity limited to viscosity ratio of 1.000000e+05 in 1 cells 

 Reversed flow on 4385 faces (100.0% area) of pressure-outlet 24.

 Reversed flow on 1582 faces (75.5% area) of pressure-outlet 25.
    81  1.5597e-01  1.6572e-03  1.6029e-03  1.4457e-03  2.1276e-03  5.8559e-03  3:54:08 9919

 Reversed flow on 4385 faces (100.0% area) of pressure-outlet 24.

 Reversed flow on 1583 faces (75.5% area) of pressure-outlet 25.
    82  1.5600e-01  1.6721e-03  1.6283e-03  1.4638e-03  2.0812e-03  5.8487e-03  3:40:21 9918

 Reversed flow on 4385 faces (100.0% area) of pressure-outlet 24.

 Reversed flow on 1585 faces (75.7% area) of pressure-outlet 25.
    83  1.5604e-01  1.6929e-03  1.6414e-03  1.4799e-03  2.1579e-03  6.0950e-03  4:02:22 9917

 Reversed flow on 4385 faces (100.0% area) of pressure-outlet 24.

 Reversed flow on 1584 faces (75.6% area) of pressure-outlet 25.
    84  1.5659e-01  1.6977e-03  1.6651e-03  1.4943e-03  2.0810e-03  5.6657e-03  4:19:59 9916

 Reversed flow on 4385 faces (100.0% area) of pressure-outlet 24.

 Reversed flow on 1586 faces (75.7% area) of pressure-outlet 25.
    85  1.5699e-01  1.6994e-03  1.6708e-03  1.5001e-03  2.1494e-03  5.8471e-03  4:34:04 9915

 Reversed flow on 4385 faces (100.0% area) of pressure-outlet 24.

 Reversed flow on 1585 faces (75.7% area) of pressure-outlet 25.
    86  1.5717e-01  1.6929e-03  1.6786e-03  1.5022e-03  2.0910e-03  5.7094e-03  4:12:17 9914

 Reversed flow on 4385 faces (100.0% area) of pressure-outlet 24.

 Reversed flow on 1586 faces (75.8% area) of pressure-outlet 25.
    87  1.5736e-01  1.6870e-03  1.6737e-03  1.5023e-03  2.1931e-03  6.2189e-03  4:27:53 9913

 turbulent viscosity limited to viscosity ratio of 1.000000e+05 in 1 cells 

 Reversed flow on 4385 faces (100.0% area) of pressure-outlet 24.

 Reversed flow on 1587 faces (75.8% area) of pressure-outlet 25.
    88  1.5706e-01  1.6705e-03  1.6706e-03  1.4999e-03  2.1351e-03  6.0459e-03  4:07:20 9912

 turbulent viscosity limited to viscosity ratio of 1.000000e+05 in 1 cells 

 Reversed flow on 4385 faces (100.0% area) of pressure-outlet 24.

 Reversed flow on 1588 faces (75.8% area) of pressure-outlet 25.

  iter  continuity  x-velocity  y-velocity  z-velocity           k     epsilon     time/iter
    89  1.5660e-01  1.6536e-03  1.6601e-03  1.4931e-03  2.2064e-03  6.1783e-03  4:23:55 9911

 turbulent viscosity limited to viscosity ratio of 1.000000e+05 in 4 cells 

 Reversed flow on 4385 faces (100.0% area) of pressure-outlet 24.

 Reversed flow on 1585 faces (75.7% area) of pressure-outlet 25.
    90  1.5633e-01  1.6391e-03  1.6476e-03  1.4828e-03  2.1701e-03  6.1586e-03  4:37:11 9910

 turbulent viscosity limited to viscosity ratio of 1.000000e+05 in 2 cells 

 Reversed flow on 4385 faces (100.0% area) of pressure-outlet 24.

 Reversed flow on 1587 faces (75.7% area) of pressure-outlet 25.
    91  1.5541e-01  1.6189e-03  1.6353e-03  1.4711e-03  2.2503e-03  6.5434e-03  4:14:45 9909

 turbulent viscosity limited to viscosity ratio of 1.000000e+05 in 21 cells 

 Reversed flow on 4385 faces (100.0% area) of pressure-outlet 24.

 Reversed flow on 1589 faces (75.8% area) of pressure-outlet 25.
    92  1.5415e-01  1.6059e-03  1.6219e-03  1.4574e-03  2.2408e-03  6.5833e-03  4:29:50 9908

 turbulent viscosity limited to viscosity ratio of 1.000000e+05 in 12 cells 

 Reversed flow on 4385 faces (100.0% area) of pressure-outlet 24.

 Reversed flow on 1588 faces (75.8% area) of pressure-outlet 25.
    93  1.5355e-01  1.5860e-03  1.6096e-03  1.4435e-03  2.3254e-03  6.6340e-03  4:41:54 9907

 turbulent viscosity limited to viscosity ratio of 1.000000e+05 in 1 cells 

 Reversed flow on 4385 faces (100.0% area) of pressure-outlet 24.

 Reversed flow on 1588 faces (75.8% area) of pressure-outlet 25.
    94  1.5314e-01  1.5845e-03  1.5917e-03  1.4320e-03  2.3516e-03  6.7649e-03  4:51:32 9906

 turbulent viscosity limited to viscosity ratio of 1.000000e+05 in 1 cells 

 Reversed flow on 4385 faces (100.0% area) of pressure-outlet 24.

 Reversed flow on 1590 faces (75.9% area) of pressure-outlet 25.
    95  1.5344e-01  1.5746e-03  1.5832e-03  1.4277e-03  2.3347e-03  6.6311e-03  4:59:14 9905

 Reversed flow on 4385 faces (100.0% area) of pressure-outlet 24.

 Reversed flow on 1587 faces (75.8% area) of pressure-outlet 25.
    96  1.5344e-01  1.5783e-03  1.5658e-03  1.4198e-03  2.3241e-03  6.7387e-03  4:32:23 9904

 Reversed flow on 4385 faces (100.0% area) of pressure-outlet 24.

 Reversed flow on 1590 faces (75.9% area) of pressure-outlet 25.
    97  1.5368e-01  1.5611e-03  1.5521e-03  1.4047e-03  2.2680e-03  6.5006e-03  4:43:54 9903

 Reversed flow on 4385 faces (100.0% area) of pressure-outlet 24.

 Reversed flow on 1586 faces (75.7% area) of pressure-outlet 25.
    98  1.5308e-01  1.5539e-03  1.5217e-03  1.3808e-03  2.2398e-03  6.4727e-03  4:20:06 9902

 Reversed flow on 4385 faces (100.0% area) of pressure-outlet 24.

 Reversed flow on 1589 faces (75.9% area) of pressure-outlet 25.
    99  1.5205e-01  1.5300e-03  1.4990e-03  1.3556e-03  2.1657e-03  6.1943e-03  4:34:04 9901

 Reversed flow on 4385 faces (100.0% area) of pressure-outlet 24.

 Reversed flow on 1586 faces (75.7% area) of pressure-outlet 25.

  iter  continuity  x-velocity  y-velocity  z-velocity           k     epsilon     time/iter
   100  1.5048e-01  1.5202e-03  1.4668e-03  1.3281e-03  2.2122e-03  6.6953e-03  4:12:14 9900

 Reversed flow on 4385 faces (100.0% area) of pressure-outlet 24.

 Reversed flow on 1586 faces (75.7% area) of pressure-outlet 25.
   101  1.4902e-01  1.4981e-03  1.4498e-03  1.3104e-03  2.1709e-03  6.4679e-03  5:33:45 9899

 Reversed flow on 4385 faces (100.0% area) of pressure-outlet 24.

 Reversed flow on 1585 faces (75.7% area) of pressure-outlet 25.
   102  1.4744e-01  1.4942e-03  1.4335e-03  1.2994e-03  2.2464e-03  6.6388e-03  5:32:58 9898

 Reversed flow on 4385 faces (100.0% area) of pressure-outlet 24.

 Reversed flow on 1583 faces (75.6% area) of pressure-outlet 25.
   103  1.4574e-01  1.4844e-03  1.4387e-03  1.2991e-03  2.2979e-03  6.7618e-03  4:59:20 9897

 Reversed flow on 4385 faces (100.0% area) of pressure-outlet 24.

 Reversed flow on 1583 faces (75.6% area) of pressure-outlet 25.
   104  1.4489e-01  1.4999e-03  1.4521e-03  1.3097e-03  2.4205e-03  7.5093e-03  5:05:25 9896

 Reversed flow on 4385 faces (100.0% area) of pressure-outlet 24.

 Reversed flow on 1581 faces (75.5% area) of pressure-outlet 25.
   105  1.4468e-01  1.5163e-03  1.4714e-03  1.3270e-03  2.3905e-03  7.4242e-03  4:37:17 9895

 Reversed flow on 4385 faces (100.0% area) of pressure-outlet 24.

 Reversed flow on 1580 faces (75.4% area) of pressure-outlet 25.
   106  1.4495e-01  1.5341e-03  1.4832e-03  1.3441e-03  2.4305e-03  7.5325e-03  4:47:46 9894

 Reversed flow on 4385 faces (100.0% area) of pressure-outlet 24.

 Reversed flow on 1579 faces (75.4% area) of pressure-outlet 25.
   107  1.4509e-01  1.5490e-03  1.4860e-03  1.3618e-03  2.4257e-03  7.5206e-03  4:56:09 9893

 Reversed flow on 4385 faces (100.0% area) of pressure-outlet 24.

 Reversed flow on 1579 faces (75.4% area) of pressure-outlet 25.
   108  1.4566e-01  1.5616e-03  1.4889e-03  1.3795e-03  2.4428e-03  7.6969e-03  4:29:52 9892

 Reversed flow on 4385 faces (100.0% area) of pressure-outlet 24.

 Reversed flow on 1578 faces (75.4% area) of pressure-outlet 25.
   109  1.4614e-01  1.5663e-03  1.4860e-03  1.3951e-03  2.3790e-03  7.5746e-03  4:08:50 9891

 Reversed flow on 4385 faces (100.0% area) of pressure-outlet 24.

 Reversed flow on 1577 faces (75.3% area) of pressure-outlet 25.
   110  1.4626e-01  1.5599e-03  1.4896e-03  1.4040e-03  2.3555e-03  7.3730e-03  4:24:59 9890

 Reversed flow on 4385 faces (100.0% area) of pressure-outlet 24.

 Reversed flow on 1578 faces (75.3% area) of pressure-outlet 25.

  iter  continuity  x-velocity  y-velocity  z-velocity           k     epsilon     time/iter
   111  1.4663e-01  1.5617e-03  1.4889e-03  1.4082e-03  2.3337e-03  7.2798e-03  4:04:56 9889

 Reversed flow on 4385 faces (100.0% area) of pressure-outlet 24.

 Reversed flow on 1579 faces (75.4% area) of pressure-outlet 25.
   112  1.4681e-01  1.5542e-03  1.4947e-03  1.4049e-03  2.3177e-03  7.2721e-03  3:48:53 9888

 Reversed flow on 4385 faces (100.0% area) of pressure-outlet 24.

 Reversed flow on 1580 faces (75.4% area) of pressure-outlet 25.
   113  1.4638e-01  1.5513e-03  1.4851e-03  1.4021e-03  2.3190e-03  7.2553e-03  4:09:00 9887

 Reversed flow on 4385 faces (100.0% area) of pressure-outlet 24.

 Reversed flow on 1579 faces (75.3% area) of pressure-outlet 25.
   114  1.4615e-01  1.5491e-03  1.4771e-03  1.3988e-03  2.3308e-03  7.5197e-03  4:25:05 9886

 Reversed flow on 4385 faces (100.0% area) of pressure-outlet 24.

 Reversed flow on 1580 faces (75.4% area) of pressure-outlet 25.
   115  1.4623e-01  1.5501e-03  1.4631e-03  1.3990e-03  2.3582e-03  7.4652e-03  4:05:00 9885

 Reversed flow on 4385 faces (100.0% area) of pressure-outlet 24.

 Reversed flow on 1581 faces (75.4% area) of pressure-outlet 25.
   116  1.4676e-01  1.5434e-03  1.4538e-03  1.3938e-03  2.3132e-03  7.3709e-03  3:48:56 9884

 Reversed flow on 4385 faces (100.0% area) of pressure-outlet 24.

 Reversed flow on 1580 faces (75.4% area) of pressure-outlet 25.
   117  1.4740e-01  1.5348e-03  1.4438e-03  1.3879e-03  2.3012e-03  7.3602e-03  4:09:01 9883

 Reversed flow on 4385 faces (100.0% area) of pressure-outlet 24.

 Reversed flow on 1580 faces (75.4% area) of pressure-outlet 25.
   118  1.4756e-01  1.5250e-03  1.4409e-03  1.3804e-03  2.2869e-03  7.6518e-03  3:52:08 9882

 Reversed flow on 4385 faces (100.0% area) of pressure-outlet 24.

 Reversed flow on 1577 faces (75.2% area) of pressure-outlet 25.
   119  1.4733e-01  1.5135e-03  1.4404e-03  1.3746e-03  2.2614e-03  7.5204e-03  3:38:37 9881

 Reversed flow on 4385 faces (100.0% area) of pressure-outlet 24.

 Reversed flow on 1577 faces (75.2% area) of pressure-outlet 25.
   120  1.4667e-01  1.5080e-03  1.4391e-03  1.3695e-03  2.2086e-03  7.4847e-03  4:00:45 9880

 Reversed flow on 4385 faces (100.0% area) of pressure-outlet 24.

 Reversed flow on 1576 faces (75.2% area) of pressure-outlet 25.
   121  1.4564e-01  1.5024e-03  1.4353e-03  1.3583e-03  2.1570e-03  7.3690e-03  4:18:26 9879

 Reversed flow on 4385 faces (100.0% area) of pressure-outlet 24.

 Reversed flow on 1577 faces (75.2% area) of pressure-outlet 25.

  iter  continuity  x-velocity  y-velocity  z-velocity           k     epsilon     time/iter
   122  1.4406e-01  1.4983e-03  1.4231e-03  1.3392e-03  2.0940e-03  7.4270e-03  3:59:39 9878

 Reversed flow on 4385 faces (100.0% area) of pressure-outlet 24.

 Reversed flow on 1575 faces (75.2% area) of pressure-outlet 25.
   123  1.4130e-01  1.4714e-03  1.3984e-03  1.3167e-03  1.9812e-03  7.0763e-03  4:17:33 9877

 Reversed flow on 4385 faces (100.0% area) of pressure-outlet 24.

 Reversed flow on 1577 faces (75.3% area) of pressure-outlet 25.
   124  1.3782e-01  1.4453e-03  1.3617e-03  1.2926e-03  1.9163e-03  6.7324e-03  4:31:52 9876

 Reversed flow on 4385 faces (100.0% area) of pressure-outlet 24.

 Reversed flow on 1576 faces (75.2% area) of pressure-outlet 25.
   125  1.3412e-01  1.4049e-03  1.3255e-03  1.2669e-03  1.8328e-03  6.4703e-03  4:43:18 9875

 Reversed flow on 4385 faces (100.0% area) of pressure-outlet 24.

 Reversed flow on 1575 faces (75.2% area) of pressure-outlet 25.
   126  1.3017e-01  1.3735e-03  1.2875e-03  1.2417e-03  1.7892e-03  6.2428e-03  4:52:27 9874

 Reversed flow on 4385 faces (100.0% area) of pressure-outlet 24.

 Reversed flow on 1572 faces (75.1% area) of pressure-outlet 25.
   127  1.2679e-01  1.3323e-03  1.2606e-03  1.2174e-03  1.7166e-03  5.8752e-03  4:26:50 9873

 turbulent viscosity limited to viscosity ratio of 1.000000e+05 in 7 cells 

 Reversed flow on 4385 faces (100.0% area) of pressure-outlet 24.

 Reversed flow on 1572 faces (75.1% area) of pressure-outlet 25.
   128  1.2403e-01  1.3021e-03  1.2365e-03  1.1945e-03  1.7094e-03  5.6220e-03  4:39:16 9872

 turbulent viscosity limited to viscosity ratio of 1.000000e+05 in 11 cells 

 Reversed flow on 4385 faces (100.0% area) of pressure-outlet 24.

 Reversed flow on 1571 faces (75.0% area) of pressure-outlet 25.
   129  1.2159e-01  1.2705e-03  1.2195e-03  1.1772e-03  1.6900e-03  5.5114e-03  4:16:18 9871

 turbulent viscosity limited to viscosity ratio of 1.000000e+05 in 17 cells 

 Reversed flow on 4385 faces (100.0% area) of pressure-outlet 24.

 Reversed flow on 1570 faces (75.0% area) of pressure-outlet 25.
   130  1.1981e-01  1.2460e-03  1.2073e-03  1.1642e-03  1.7256e-03  5.7453e-03  4:30:49 9870

 turbulent viscosity limited to viscosity ratio of 1.000000e+05 in 17 cells 

 Reversed flow on 4385 faces (100.0% area) of pressure-outlet 24.

 Reversed flow on 1568 faces (74.9% area) of pressure-outlet 25.
   131  1.1862e-01  1.2312e-03  1.2027e-03  1.1573e-03  1.7651e-03  5.7634e-03  4:42:25 9869

 turbulent viscosity limited to viscosity ratio of 1.000000e+05 in 17 cells 

 Reversed flow on 4385 faces (100.0% area) of pressure-outlet 24.

 Reversed flow on 1569 faces (75.0% area) of pressure-outlet 25.
   132  1.1789e-01  1.2281e-03  1.2075e-03  1.1611e-03  1.8818e-03  6.3001e-03  5:24:36 9868

 turbulent viscosity limited to viscosity ratio of 1.000000e+05 in 20 cells 

 Reversed flow on 4385 faces (100.0% area) of pressure-outlet 24.

 Reversed flow on 1569 faces (75.0% area) of pressure-outlet 25.

  iter  continuity  x-velocity  y-velocity  z-velocity           k     epsilon     time/iter
   133  1.1786e-01  1.2425e-03  1.2272e-03  1.1776e-03  2.0331e-03  6.9745e-03  4:52:32 9867

 turbulent viscosity limited to viscosity ratio of 1.000000e+05 in 10 cells 

 Reversed flow on 4385 faces (100.0% area) of pressure-outlet 24.

 Reversed flow on 1570 faces (75.0% area) of pressure-outlet 25.
   134  1.1876e-01  1.2764e-03  1.2646e-03  1.2099e-03  2.2635e-03  7.8625e-03  4:26:54 9866

 turbulent viscosity limited to viscosity ratio of 1.000000e+05 in 6 cells 

 Reversed flow on 4385 faces (100.0% area) of pressure-outlet 24.

 Reversed flow on 1570 faces (75.0% area) of pressure-outlet 25.
   135  1.2089e-01  1.3374e-03  1.3269e-03  1.2580e-03  2.4937e-03  8.7510e-03  4:39:16 9865

 Reversed flow on 4385 faces (100.0% area) of pressure-outlet 24.

 Reversed flow on 1569 faces (74.9% area) of pressure-outlet 25.
   136  1.2474e-01  1.4212e-03  1.4090e-03  1.3243e-03  2.7189e-03  9.4460e-03  4:16:16 9864

 Reversed flow on 4385 faces (100.0% area) of pressure-outlet 24.

 Reversed flow on 1569 faces (75.0% area) of pressure-outlet 25.
   137  1.2968e-01  1.5174e-03  1.5020e-03  1.3984e-03  2.8909e-03  1.0036e-02  4:30:45 9863

 turbulent viscosity limited to viscosity ratio of 1.000000e+05 in 1 cells 

 Reversed flow on 1 face (0.2% area) of pressure-outlet 22.

 Reversed flow on 4385 faces (100.0% area) of pressure-outlet 24.

 Reversed flow on 1566 faces (74.9% area) of pressure-outlet 25.
   138  1.3481e-01  1.6003e-03  1.5936e-03  1.4711e-03  2.9737e-03  9.8225e-03  4:42:19 9862

 Reversed flow on 3 faces (0.6% area) of pressure-outlet 22.

 Reversed flow on 4385 faces (100.0% area) of pressure-outlet 24.

 Reversed flow on 1567 faces (74.9% area) of pressure-outlet 25.
   139  1.3887e-01  1.6501e-03  1.6590e-03  1.5303e-03  2.9835e-03  9.3823e-03  4:18:42 9861

 Reversed flow on 9 faces (1.4% area) of pressure-outlet 22.

 Reversed flow on 4385 faces (100.0% area) of pressure-outlet 24.

 Reversed flow on 1568 faces (74.9% area) of pressure-outlet 25.
   140  1.4161e-01  1.6735e-03  1.6981e-03  1.5697e-03  2.9126e-03  8.9397e-03  4:32:41 9860

 turbulent viscosity limited to viscosity ratio of 1.000000e+05 in 5 cells 

 Reversed flow on 16 faces (2.5% area) of pressure-outlet 22.

 Reversed flow on 4385 faces (100.0% area) of pressure-outlet 24.

 Reversed flow on 1572 faces (75.1% area) of pressure-outlet 25.
   141  1.4322e-01  1.6809e-03  1.7040e-03  1.5833e-03  2.8958e-03  9.0850e-03  4:10:59 9859

 turbulent viscosity limited to viscosity ratio of 1.000000e+05 in 46 cells 

 Reversed flow on 16 faces (2.5% area) of pressure-outlet 22.

 Reversed flow on 4385 faces (100.0% area) of pressure-outlet 24.

 Reversed flow on 1575 faces (75.3% area) of pressure-outlet 25.
   142  1.4396e-01  1.6833e-03  1.6984e-03  1.5906e-03  2.8896e-03  8.8503e-03  4:26:29 9858

 turbulent viscosity limited to viscosity ratio of 1.000000e+05 in 99 cells 

 Reversed flow on 17 faces (2.5% area) of pressure-outlet 22.

 Reversed flow on 4385 faces (100.0% area) of pressure-outlet 24.

 Reversed flow on 1575 faces (75.3% area) of pressure-outlet 25.
   143  1.4455e-01  1.6962e-03  1.6835e-03  1.6000e-03  3.1147e-03  9.1053e-03  4:38:53 9857

 turbulent viscosity limited to viscosity ratio of 1.000000e+05 in 42 cells 

 Reversed flow on 17 faces (2.6% area) of pressure-outlet 22.

 Reversed flow on 4385 faces (100.0% area) of pressure-outlet 24.

 Reversed flow on 1573 faces (75.2% area) of pressure-outlet 25.

  iter  continuity  x-velocity  y-velocity  z-velocity           k     epsilon     time/iter
   144  1.4503e-01  1.7157e-03  1.6810e-03  1.6138e-03  3.2905e-03  9.1390e-03  4:15:56 9856

 turbulent viscosity limited to viscosity ratio of 1.000000e+05 in 1 cells 

 Reversed flow on 17 faces (2.7% area) of pressure-outlet 22.

 Reversed flow on 4385 faces (100.0% area) of pressure-outlet 24.

 Reversed flow on 1570 faces (75.1% area) of pressure-outlet 25.
   145  1.4605e-01  1.7311e-03  1.6763e-03  1.6174e-03  3.3435e-03  9.7279e-03  3:57:35 9855

 Reversed flow on 16 faces (2.5% area) of pressure-outlet 22.

 Reversed flow on 4385 faces (100.0% area) of pressure-outlet 24.

 Reversed flow on 1570 faces (75.1% area) of pressure-outlet 25.
   146  1.4669e-01  1.7282e-03  1.6705e-03  1.5997e-03  3.1131e-03  9.6626e-03  3:42:53 9854

 Reversed flow on 14 faces (2.3% area) of pressure-outlet 22.

 Reversed flow on 4385 faces (100.0% area) of pressure-outlet 24.

 Reversed flow on 1574 faces (75.2% area) of pressure-outlet 25.
   147  1.4707e-01  1.7019e-03  1.6571e-03  1.5731e-03  2.9279e-03  8.9256e-03  4:03:59 9853

 Reversed flow on 10 faces (1.4% area) of pressure-outlet 22.

 Reversed flow on 4385 faces (100.0% area) of pressure-outlet 24.

 Reversed flow on 1575 faces (75.3% area) of pressure-outlet 25.
   148  1.4648e-01  1.6773e-03  1.6392e-03  1.5449e-03  2.7656e-03  8.2573e-03  3:48:00 9852

 Reversed flow on 7 faces (0.9% area) of pressure-outlet 22.

 Reversed flow on 4385 faces (100.0% area) of pressure-outlet 24.

 Reversed flow on 1576 faces (75.3% area) of pressure-outlet 25.
   149  1.4566e-01  1.6565e-03  1.6285e-03  1.5190e-03  2.7507e-03  8.2048e-03  4:08:03 9851

 Reversed flow on 7 faces (0.9% area) of pressure-outlet 22.

 Reversed flow on 4385 faces (100.0% area) of pressure-outlet 24.

 Reversed flow on 1578 faces (75.4% area) of pressure-outlet 25.
   150  1.4464e-01  1.6447e-03  1.6135e-03  1.4965e-03  2.7210e-03  8.4306e-03  3:51:16 9850

 Reversed flow on 6 faces (0.8% area) of pressure-outlet 22.

 Reversed flow on 4385 faces (100.0% area) of pressure-outlet 24.

 Reversed flow on 1580 faces (75.5% area) of pressure-outlet 25.
   151  1.4369e-01  1.6331e-03  1.6043e-03  1.4836e-03  2.6817e-03  7.9467e-03  4:10:39 9849

 turbulent viscosity limited to viscosity ratio of 1.000000e+05 in 1 cells 

 Reversed flow on 6 faces (0.8% area) of pressure-outlet 22.

 Reversed flow on 4385 faces (100.0% area) of pressure-outlet 24.

 Reversed flow on 1585 faces (75.7% area) of pressure-outlet 25.
   152  1.4278e-01  1.6382e-03  1.5866e-03  1.4749e-03  2.7039e-03  8.4590e-03  4:26:09 9848

 Reversed flow on 5 faces (0.7% area) of pressure-outlet 22.

 Reversed flow on 4385 faces (100.0% area) of pressure-outlet 24.

 Reversed flow on 1588 faces (75.8% area) of pressure-outlet 25.
   153  1.4269e-01  1.6341e-03  1.5815e-03  1.4759e-03  2.6996e-03  8.3054e-03  4:05:43 9847

 Reversed flow on 4 faces (0.5% area) of pressure-outlet 22.

 Reversed flow on 4385 faces (100.0% area) of pressure-outlet 24.

 Reversed flow on 1592 faces (76.0% area) of pressure-outlet 25.
   154  1.4222e-01  1.6368e-03  1.5751e-03  1.4824e-03  2.7447e-03  8.7084e-03  3:49:23 9846

 Reversed flow on 4 faces (0.5% area) of pressure-outlet 22.

 Reversed flow on 4385 faces (100.0% area) of pressure-outlet 24.

 Reversed flow on 1594 faces (76.0% area) of pressure-outlet 25.

  iter  continuity  x-velocity  y-velocity  z-velocity           k     epsilon     time/iter
   155  1.4244e-01  1.6270e-03  1.5878e-03  1.4948e-03  2.7060e-03  8.3371e-03  4:09:07 9845

 Reversed flow on 2 faces (0.3% area) of pressure-outlet 22.

 Reversed flow on 4385 faces (100.0% area) of pressure-outlet 24.

 Reversed flow on 1597 faces (76.2% area) of pressure-outlet 25.
   156  1.4339e-01  1.6287e-03  1.6019e-03  1.5121e-03  2.7911e-03  8.7362e-03  3:52:05 9844

 Reversed flow on 2 faces (0.3% area) of pressure-outlet 22.

 Reversed flow on 4385 faces (100.0% area) of pressure-outlet 24.

 Reversed flow on 1594 faces (76.0% area) of pressure-outlet 25.
   157  1.4537e-01  1.6235e-03  1.6325e-03  1.5340e-03  2.7546e-03  8.3914e-03  4:11:16 9843

 Reversed flow on 4385 faces (100.0% area) of pressure-outlet 24.

 Reversed flow on 1593 faces (76.0% area) of pressure-outlet 25.
   158  1.4800e-01  1.6324e-03  1.6596e-03  1.5561e-03  2.8302e-03  8.6429e-03  4:26:37 9842

 Reversed flow on 4385 faces (100.0% area) of pressure-outlet 24.

 Reversed flow on 1594 faces (76.0% area) of pressure-outlet 25.
   159  1.5065e-01  1.6449e-03  1.6890e-03  1.5805e-03  2.7837e-03  8.6380e-03  4:06:04 9841

 Reversed flow on 4385 faces (100.0% area) of pressure-outlet 24.

 Reversed flow on 1595 faces (76.1% area) of pressure-outlet 25.
   160  1.5408e-01  1.6586e-03  1.7077e-03  1.6027e-03  2.8575e-03  8.8276e-03  4:22:26 9840

 Reversed flow on 4385 faces (100.0% area) of pressure-outlet 24.

 Reversed flow on 1591 faces (75.9% area) of pressure-outlet 25.
   161  1.5754e-01  1.6713e-03  1.7154e-03  1.6167e-03  2.8147e-03  8.5521e-03  4:35:31 9839

 Reversed flow on 4385 faces (100.0% area) of pressure-outlet 24.

 Reversed flow on 1585 faces (75.6% area) of pressure-outlet 25.
   162  1.6079e-01  1.6796e-03  1.7171e-03  1.6261e-03  2.8453e-03  8.6514e-03  4:13:11 9838

 Reversed flow on 4385 faces (100.0% area) of pressure-outlet 24.

 Reversed flow on 1582 faces (75.5% area) of pressure-outlet 25.
   163  1.6297e-01  1.6983e-03  1.7027e-03  1.6247e-03  2.8369e-03  8.9318e-03  4:28:07 9837

 Reversed flow on 4385 faces (100.0% area) of pressure-outlet 24.

 Reversed flow on 1578 faces (75.3% area) of pressure-outlet 25.
   164  1.6453e-01  1.7062e-03  1.6920e-03  1.6195e-03  2.8117e-03  8.9046e-03  4:40:02 9836

 Reversed flow on 4385 faces (100.0% area) of pressure-outlet 24.

 Reversed flow on 1576 faces (75.2% area) of pressure-outlet 25.
   165  1.6557e-01  1.7261e-03  1.6665e-03  1.6060e-03  2.7217e-03  8.8310e-03  4:16:48 9835

 Reversed flow on 4385 faces (100.0% area) of pressure-outlet 24.

 Reversed flow on 1577 faces (75.3% area) of pressure-outlet 25.

  iter  continuity  x-velocity  y-velocity  z-velocity           k     epsilon     time/iter
   166  1.6731e-01  1.7266e-03  1.6556e-03  1.5893e-03  2.6169e-03  8.6585e-03  4:30:58 9834

 Reversed flow on 4385 faces (100.0% area) of pressure-outlet 24.

 Reversed flow on 1575 faces (75.2% area) of pressure-outlet 25.
   167  1.6853e-01  1.7305e-03  1.6347e-03  1.5696e-03  2.5356e-03  8.3392e-03  4:42:19 9833

 Reversed flow on 4385 faces (100.0% area) of pressure-outlet 24.

 Reversed flow on 1574 faces (75.2% area) of pressure-outlet 25.
   168  1.6943e-01  1.7117e-03  1.6248e-03  1.5547e-03  2.4354e-03  8.1371e-03  4:18:36 9832

 Reversed flow on 4385 faces (100.0% area) of pressure-outlet 24.

 Reversed flow on 1574 faces (75.2% area) of pressure-outlet 25.
   169  1.6917e-01  1.7026e-03  1.6065e-03  1.5332e-03  2.3790e-03  7.9151e-03  4:32:24 9831

 Reversed flow on 4385 faces (100.0% area) of pressure-outlet 24.

 Reversed flow on 1572 faces (75.1% area) of pressure-outlet 25.
   170  1.6795e-01  1.6769e-03  1.5963e-03  1.5084e-03  2.2939e-03  7.6421e-03  4:43:26 9830

 Reversed flow on 4385 faces (100.0% area) of pressure-outlet 24.

 Reversed flow on 1574 faces (75.1% area) of pressure-outlet 25.
   171  1.6530e-01  1.6576e-03  1.5736e-03  1.4768e-03  2.2975e-03  7.5331e-03  4:52:15 9829

 Reversed flow on 4385 faces (100.0% area) of pressure-outlet 24.

 Reversed flow on 1571 faces (75.0% area) of pressure-outlet 25.
   172  1.6199e-01  1.6337e-03  1.5480e-03  1.4534e-03  2.2422e-03  7.3277e-03  4:59:18 9828

 Reversed flow on 4385 faces (100.0% area) of pressure-outlet 24.

 Reversed flow on 1573 faces (75.0% area) of pressure-outlet 25.
   173  1.5876e-01  1.6222e-03  1.5306e-03  1.4357e-03  2.2737e-03  7.3399e-03  4:32:10 9827

 Reversed flow on 4385 faces (100.0% area) of pressure-outlet 24.

 Reversed flow on 1575 faces (75.1% area) of pressure-outlet 25.
   174  1.5530e-01  1.6135e-03  1.5181e-03  1.4200e-03  2.2957e-03  7.4843e-03  4:10:28 9826

 Reversed flow on 4385 faces (100.0% area) of pressure-outlet 24.

 Reversed flow on 1573 faces (75.1% area) of pressure-outlet 25.
   175  1.5251e-01  1.6041e-03  1.5240e-03  1.4169e-03  2.3322e-03  7.7145e-03  4:25:51 9825

 Reversed flow on 4385 faces (100.0% area) of pressure-outlet 24.

 Reversed flow on 1577 faces (75.3% area) of pressure-outlet 25.
   176  1.5041e-01  1.6126e-03  1.5397e-03  1.4253e-03  2.3601e-03  7.7563e-03  4:38:09 9824

 Reversed flow on 4385 faces (100.0% area) of pressure-outlet 24.

 Reversed flow on 1578 faces (75.3% area) of pressure-outlet 25.

  iter  continuity  x-velocity  y-velocity  z-velocity           k     epsilon     time/iter
   177  1.4886e-01  1.6266e-03  1.5713e-03  1.4444e-03  2.4490e-03  8.0958e-03  4:15:15 9823

 Reversed flow on 4385 faces (100.0% area) of pressure-outlet 24.

 Reversed flow on 1582 faces (75.6% area) of pressure-outlet 25.
   178  1.4801e-01  1.6551e-03  1.6117e-03  1.4673e-03  2.5546e-03  8.2796e-03  4:29:39 9822

 Reversed flow on 4385 faces (100.0% area) of pressure-outlet 24.

 Reversed flow on 1580 faces (75.5% area) of pressure-outlet 25.
   179  1.4767e-01  1.6814e-03  1.6449e-03  1.5006e-03  2.6827e-03  8.3071e-03  4:08:26 9821

 Reversed flow on 4385 faces (100.0% area) of pressure-outlet 24.

 Reversed flow on 1582 faces (75.6% area) of pressure-outlet 25.
   180  1.4748e-01  1.7106e-03  1.6674e-03  1.5328e-03  2.8564e-03  8.4136e-03  4:24:12 9820

[...]

 Reversed flow on 4385 faces (100.0% area) of pressure-outlet 24.

 Reversed flow on 1539 faces (73.7% area) of pressure-outlet 25.
  9928  6.1049e-02  4.8882e-04  4.9141e-04  4.9657e-04  6.1812e-04  2.0309e-03  0:01:48   72

 Reversed flow on 4385 faces (100.0% area) of pressure-outlet 24.

 Reversed flow on 1534 faces (73.4% area) of pressure-outlet 25.
  9929  6.0757e-02  4.7986e-04  4.8117e-04  4.8606e-04  6.0689e-04  2.0020e-03  0:02:08   71

 Reversed flow on 4385 faces (100.0% area) of pressure-outlet 24.

 Reversed flow on 1535 faces (73.5% area) of pressure-outlet 25.
  9930  6.0455e-02  4.6665e-04  4.6937e-04  4.7435e-04  5.9209e-04  1.9549e-03  0:01:55   70

 Reversed flow on 4385 faces (100.0% area) of pressure-outlet 24.

 Reversed flow on 1534 faces (73.4% area) of pressure-outlet 25.
  9931  6.0066e-02  4.5504e-04  4.5871e-04  4.6235e-04  5.7975e-04  1.9127e-03  0:01:58   69

 Reversed flow on 4385 faces (100.0% area) of pressure-outlet 24.

 Reversed flow on 1534 faces (73.4% area) of pressure-outlet 25.
  9932  5.9765e-02  4.4019e-04  4.4650e-04  4.4955e-04  5.6347e-04  1.8372e-03  0:01:47   68

 Reversed flow on 4385 faces (100.0% area) of pressure-outlet 24.

 Reversed flow on 1535 faces (73.5% area) of pressure-outlet 25.
  9933  5.9339e-02  4.2708e-04  4.3523e-04  4.3708e-04  5.4650e-04  1.7601e-03  0:01:51   67

 Reversed flow on 4385 faces (100.0% area) of pressure-outlet 24.

 Reversed flow on 1535 faces (73.5% area) of pressure-outlet 25.

  iter  continuity  x-velocity  y-velocity  z-velocity           k     epsilon     time/iter
  9934  5.8904e-02  4.1118e-04  4.2265e-04  4.2443e-04  5.2617e-04  1.6559e-03  0:01:54   66

 Reversed flow on 4385 faces (100.0% area) of pressure-outlet 24.

 Reversed flow on 1537 faces (73.6% area) of pressure-outlet 25.
  9935  5.8302e-02  3.9737e-04  4.1181e-04  4.1174e-04  5.1007e-04  1.5899e-03  0:01:43   65

 Reversed flow on 4385 faces (100.0% area) of pressure-outlet 24.

 Reversed flow on 1536 faces (73.5% area) of pressure-outlet 25.
  9936  5.7630e-02  3.8268e-04  3.9860e-04  3.9981e-04  4.8987e-04  1.4825e-03  0:01:47   64

 Reversed flow on 4385 faces (100.0% area) of pressure-outlet 24.

 Reversed flow on 1535 faces (73.5% area) of pressure-outlet 25.
  9937  5.6895e-02  3.7124e-04  3.8590e-04  3.8832e-04  4.7672e-04  1.4507e-03  0:01:49   63

 Reversed flow on 4385 faces (100.0% area) of pressure-outlet 24.

 Reversed flow on 1534 faces (73.4% area) of pressure-outlet 25.
  9938  5.6087e-02  3.6038e-04  3.7226e-04  3.7741e-04  4.6609e-04  1.4080e-03  0:01:51   62

 Reversed flow on 4385 faces (100.0% area) of pressure-outlet 24.

 Reversed flow on 1537 faces (73.6% area) of pressure-outlet 25.
  9939  5.5153e-02  3.5239e-04  3.6122e-04  3.6815e-04  4.6175e-04  1.4175e-03  0:01:39   61

 Reversed flow on 4385 faces (100.0% area) of pressure-outlet 24.

 Reversed flow on 1532 faces (73.3% area) of pressure-outlet 25.
  9940  5.4329e-02  3.4588e-04  3.5165e-04  3.6088e-04  4.5896e-04  1.4253e-03  0:01:42   60

 Reversed flow on 4385 faces (100.0% area) of pressure-outlet 24.

 Reversed flow on 1533 faces (73.4% area) of pressure-outlet 25.
  9941  5.3628e-02  3.4326e-04  3.4523e-04  3.5475e-04  4.5810e-04  1.4553e-03  0:01:44   59

 Reversed flow on 4385 faces (100.0% area) of pressure-outlet 24.

 Reversed flow on 1532 faces (73.3% area) of pressure-outlet 25.
  9942  5.3191e-02  3.4163e-04  3.4093e-04  3.4999e-04  4.6112e-04  1.4883e-03  0:01:33   58

 Reversed flow on 4385 faces (100.0% area) of pressure-outlet 24.

 Reversed flow on 1535 faces (73.5% area) of pressure-outlet 25.
  9943  5.2916e-02  3.4212e-04  3.3977e-04  3.4668e-04  4.6214e-04  1.5143e-03  0:01:48   57

 Reversed flow on 4385 faces (100.0% area) of pressure-outlet 24.

 Reversed flow on 1534 faces (73.4% area) of pressure-outlet 25.
  9944  5.2743e-02  3.4197e-04  3.3819e-04  3.4429e-04  4.6156e-04  1.5369e-03  0:01:36   56

 Reversed flow on 4385 faces (100.0% area) of pressure-outlet 24.

 Reversed flow on 1536 faces (73.5% area) of pressure-outlet 25.

  iter  continuity  x-velocity  y-velocity  z-velocity           k     epsilon     time/iter
  9945  5.2436e-02  3.4324e-04  3.3904e-04  3.4220e-04  4.5729e-04  1.5300e-03  0:01:37   55

 Reversed flow on 4385 faces (100.0% area) of pressure-outlet 24.

 Reversed flow on 1536 faces (73.5% area) of pressure-outlet 25.
  9946  5.2152e-02  3.4291e-04  3.3895e-04  3.4031e-04  4.5071e-04  1.5083e-03  0:01:27   54

 Reversed flow on 4385 faces (100.0% area) of pressure-outlet 24.

 Reversed flow on 1538 faces (73.6% area) of pressure-outlet 25.
  9947  5.1788e-02  3.4378e-04  3.3968e-04  3.3950e-04  4.4120e-04  1.4543e-03  0:01:19   53

 Reversed flow on 4385 faces (100.0% area) of pressure-outlet 24.

 Reversed flow on 1538 faces (73.7% area) of pressure-outlet 25.
  9948  5.1476e-02  3.4235e-04  3.3745e-04  3.3893e-04  4.3368e-04  1.4227e-03  0:01:12   52

 Reversed flow on 4385 faces (100.0% area) of pressure-outlet 24.

 Reversed flow on 1536 faces (73.5% area) of pressure-outlet 25.
  9949  5.1265e-02  3.4196e-04  3.3571e-04  3.3875e-04  4.2373e-04  1.3647e-03  0:01:07   51

 Reversed flow on 4385 faces (100.0% area) of pressure-outlet 24.

 Reversed flow on 1536 faces (73.5% area) of pressure-outlet 25.
  9950  5.1138e-02  3.3888e-04  3.3261e-04  3.3775e-04  4.1678e-04  1.3231e-03  0:01:13   50

 Reversed flow on 4385 faces (100.0% area) of pressure-outlet 24.

 Reversed flow on 1535 faces (73.5% area) of pressure-outlet 25.
  9951  5.0929e-02  3.3728e-04  3.3016e-04  3.3649e-04  4.0921e-04  1.2696e-03  0:01:17   49

 Reversed flow on 4385 faces (100.0% area) of pressure-outlet 24.

 Reversed flow on 1535 faces (73.5% area) of pressure-outlet 25.
  9952  5.0897e-02  3.3365e-04  3.2617e-04  3.3537e-04  4.0528e-04  1.2348e-03  0:01:10   48

 Reversed flow on 4385 faces (100.0% area) of pressure-outlet 24.

 Reversed flow on 1536 faces (73.5% area) of pressure-outlet 25.
  9953  5.0744e-02  3.3148e-04  3.2289e-04  3.3393e-04  4.0062e-04  1.1985e-03  0:01:13   47

 Reversed flow on 4385 faces (100.0% area) of pressure-outlet 24.

 Reversed flow on 1535 faces (73.5% area) of pressure-outlet 25.
  9954  5.0572e-02  3.2662e-04  3.1814e-04  3.3184e-04  3.9870e-04  1.1796e-03  0:01:16   46

 Reversed flow on 4385 faces (100.0% area) of pressure-outlet 24.

 Reversed flow on 1536 faces (73.5% area) of pressure-outlet 25.
  9955  5.0268e-02  3.2367e-04  3.1557e-04  3.2981e-04  3.9799e-04  1.1710e-03  0:01:08   45

 Reversed flow on 4385 faces (100.0% area) of pressure-outlet 24.

 Reversed flow on 1536 faces (73.5% area) of pressure-outlet 25.

  iter  continuity  x-velocity  y-velocity  z-velocity           k     epsilon     time/iter
  9956  4.9990e-02  3.1882e-04  3.1163e-04  3.2752e-04  3.9979e-04  1.1799e-03  0:01:02   44

 Reversed flow on 4385 faces (100.0% area) of pressure-outlet 24.

 Reversed flow on 1538 faces (73.6% area) of pressure-outlet 25.
  9957  4.9748e-02  3.1695e-04  3.0976e-04  3.2566e-04  4.0227e-04  1.2109e-03  0:01:06   43

 Reversed flow on 4385 faces (100.0% area) of pressure-outlet 24.

 Reversed flow on 1536 faces (73.5% area) of pressure-outlet 25.
  9958  4.9635e-02  3.1319e-04  3.0668e-04  3.2364e-04  4.0592e-04  1.2375e-03  0:01:08   42

 Reversed flow on 4385 faces (100.0% area) of pressure-outlet 24.

 Reversed flow on 1535 faces (73.5% area) of pressure-outlet 25.
  9959  4.9479e-02  3.1176e-04  3.0619e-04  3.2170e-04  4.0968e-04  1.2774e-03  0:01:10   41

 Reversed flow on 4385 faces (100.0% area) of pressure-outlet 24.

 Reversed flow on 1535 faces (73.5% area) of pressure-outlet 25.
  9960  4.9433e-02  3.0856e-04  3.0386e-04  3.1972e-04  4.1168e-04  1.2711e-03  0:01:02   40

 Reversed flow on 4385 faces (100.0% area) of pressure-outlet 24.

 Reversed flow on 1534 faces (73.4% area) of pressure-outlet 25.
  9961  4.9415e-02  3.0780e-04  3.0367e-04  3.1880e-04  4.1375e-04  1.3048e-03  0:01:04   39

 Reversed flow on 4385 faces (100.0% area) of pressure-outlet 24.

 Reversed flow on 1535 faces (73.5% area) of pressure-outlet 25.
  9962  4.9558e-02  3.0467e-04  3.0141e-04  3.1760e-04  4.1399e-04  1.2866e-03  0:01:05   38

 Reversed flow on 4385 faces (100.0% area) of pressure-outlet 24.

 Reversed flow on 1533 faces (73.4% area) of pressure-outlet 25.
  9963  4.9813e-02  3.0380e-04  3.0122e-04  3.1669e-04  4.1460e-04  1.3137e-03  0:00:58   37

 Reversed flow on 4385 faces (100.0% area) of pressure-outlet 24.

 Reversed flow on 1530 faces (73.3% area) of pressure-outlet 25.
  9964  5.0010e-02  3.0106e-04  2.9896e-04  3.1529e-04  4.1586e-04  1.3006e-03  0:01:00   36

 Reversed flow on 4385 faces (100.0% area) of pressure-outlet 24.

 Reversed flow on 1531 faces (73.3% area) of pressure-outlet 25.
  9965  5.0177e-02  2.9952e-04  2.9927e-04  3.1424e-04  4.1806e-04  1.3183e-03  0:01:00   35

 Reversed flow on 4385 faces (100.0% area) of pressure-outlet 24.

 Reversed flow on 1529 faces (73.2% area) of pressure-outlet 25.
  9966  5.0418e-02  2.9653e-04  2.9713e-04  3.1335e-04  4.2171e-04  1.3029e-03  0:01:01   34

 Reversed flow on 4385 faces (100.0% area) of pressure-outlet 24.

 Reversed flow on 1530 faces (73.2% area) of pressure-outlet 25.

  iter  continuity  x-velocity  y-velocity  z-velocity           k     epsilon     time/iter
  9967  5.0538e-02  2.9544e-04  2.9679e-04  3.1305e-04  4.2401e-04  1.3150e-03  0:00:54   33

 Reversed flow on 4385 faces (100.0% area) of pressure-outlet 24.

 Reversed flow on 1532 faces (73.4% area) of pressure-outlet 25.
  9968  5.0776e-02  2.9246e-04  2.9386e-04  3.1224e-04  4.2572e-04  1.2890e-03  0:00:54   32

 Reversed flow on 4385 faces (100.0% area) of pressure-outlet 24.

 Reversed flow on 1531 faces (73.3% area) of pressure-outlet 25.
  9969  5.0861e-02  2.9164e-04  2.9275e-04  3.1213e-04  4.2850e-04  1.3045e-03  0:00:55   31

 Reversed flow on 4385 faces (100.0% area) of pressure-outlet 24.

 Reversed flow on 1539 faces (73.7% area) of pressure-outlet 25.
  9970  5.0942e-02  2.8868e-04  2.8906e-04  3.1134e-04  4.3036e-04  1.2706e-03  0:00:48   30

 Reversed flow on 4385 faces (100.0% area) of pressure-outlet 24.

 Reversed flow on 1531 faces (73.3% area) of pressure-outlet 25.
  9971  5.0932e-02  2.8675e-04  2.8774e-04  3.1093e-04  4.3384e-04  1.2980e-03  0:00:55   29

 Reversed flow on 4385 faces (100.0% area) of pressure-outlet 24.

 Reversed flow on 1534 faces (73.4% area) of pressure-outlet 25.
  9972  5.0912e-02  2.8351e-04  2.8455e-04  3.1039e-04  4.3642e-04  1.2815e-03  0:00:53   28

 turbulent viscosity limited to viscosity ratio of 1.000000e+05 in 1 cells 

 Reversed flow on 4385 faces (100.0% area) of pressure-outlet 24.

 Reversed flow on 1532 faces (73.3% area) of pressure-outlet 25.
  9973  5.0960e-02  2.8187e-04  2.8371e-04  3.0961e-04  4.3851e-04  1.3138e-03  0:01:03   27

 turbulent viscosity limited to viscosity ratio of 1.000000e+05 in 4 cells 

 Reversed flow on 4385 faces (100.0% area) of pressure-outlet 24.

 Reversed flow on 1530 faces (73.2% area) of pressure-outlet 25.
  9974  5.1045e-02  2.8017e-04  2.8209e-04  3.0789e-04  4.4718e-04  1.3343e-03  0:01:09   26

 turbulent viscosity limited to viscosity ratio of 1.000000e+05 in 1 cells 

 Reversed flow on 4385 faces (100.0% area) of pressure-outlet 24.

 Reversed flow on 1529 faces (73.1% area) of pressure-outlet 25.
  9975  5.0975e-02  2.8159e-04  2.8309e-04  3.0710e-04  4.5836e-04  1.4081e-03  0:01:03   25

 Reversed flow on 4385 faces (100.0% area) of pressure-outlet 24.

 Reversed flow on 1531 faces (73.3% area) of pressure-outlet 25.
  9976  5.0937e-02  2.8333e-04  2.8358e-04  3.0713e-04  4.6628e-04  1.4936e-03  0:00:58   24

 Reversed flow on 4385 faces (100.0% area) of pressure-outlet 24.

 Reversed flow on 1528 faces (73.1% area) of pressure-outlet 25.
  9977  5.0870e-02  2.8991e-04  2.8787e-04  3.1030e-04  4.8711e-04  1.6183e-03  0:00:54   23

 Reversed flow on 4385 faces (100.0% area) of pressure-outlet 24.

 Reversed flow on 1533 faces (73.4% area) of pressure-outlet 25.

  iter  continuity  x-velocity  y-velocity  z-velocity           k     epsilon     time/iter
  9978  5.1162e-02  2.9845e-04  2.9318e-04  3.1606e-04  5.0993e-04  1.7324e-03  0:00:46   22

 Reversed flow on 4385 faces (100.0% area) of pressure-outlet 24.

 Reversed flow on 1532 faces (73.3% area) of pressure-outlet 25.
  9979  5.1726e-02  3.1138e-04  3.0262e-04  3.2601e-04  5.3530e-04  1.8387e-03  0:00:43   21

 Reversed flow on 4385 faces (100.0% area) of pressure-outlet 24.

 Reversed flow on 1535 faces (73.5% area) of pressure-outlet 25.
  9980  5.2748e-02  3.2394e-04  3.1312e-04  3.3851e-04  5.6478e-04  1.9313e-03  0:00:41   20

 Reversed flow on 4385 faces (100.0% area) of pressure-outlet 24.

 Reversed flow on 1528 faces (73.1% area) of pressure-outlet 25.
  9981  5.4021e-02  3.4111e-04  3.2761e-04  3.5369e-04  6.0351e-04  2.0954e-03  0:00:35   19

 Reversed flow on 4385 faces (100.0% area) of pressure-outlet 24.

 Reversed flow on 1530 faces (73.2% area) of pressure-outlet 25.
  9982  5.5425e-02  3.5827e-04  3.4263e-04  3.6942e-04  6.3794e-04  2.2444e-03  0:00:34   18

 Reversed flow on 4385 faces (100.0% area) of pressure-outlet 24.

 Reversed flow on 1532 faces (73.3% area) of pressure-outlet 25.
  9983  5.6894e-02  3.7784e-04  3.5985e-04  3.8498e-04  6.6097e-04  2.3435e-03  0:00:32   17

 Reversed flow on 4385 faces (100.0% area) of pressure-outlet 24.

 Reversed flow on 1531 faces (73.3% area) of pressure-outlet 25.
  9984  5.8259e-02  3.9318e-04  3.7615e-04  3.9896e-04  6.7275e-04  2.3911e-03  0:00:27   16

 Reversed flow on 4385 faces (100.0% area) of pressure-outlet 24.

 Reversed flow on 1532 faces (73.3% area) of pressure-outlet 25.
  9985  5.9421e-02  4.0718e-04  3.9219e-04  4.1062e-04  6.7784e-04  2.4099e-03  0:00:27   15

 Reversed flow on 4385 faces (100.0% area) of pressure-outlet 24.

 Reversed flow on 1533 faces (73.4% area) of pressure-outlet 25.
  9986  6.0416e-02  4.1724e-04  4.0287e-04  4.2017e-04  6.7479e-04  2.3915e-03  0:00:23   14

 Reversed flow on 4385 faces (100.0% area) of pressure-outlet 24.

 Reversed flow on 1538 faces (73.6% area) of pressure-outlet 25.
  9987  6.0850e-02  4.2662e-04  4.1172e-04  4.2626e-04  6.7039e-04  2.3703e-03  0:00:22   13

 Reversed flow on 4385 faces (100.0% area) of pressure-outlet 24.

 Reversed flow on 1536 faces (73.5% area) of pressure-outlet 25.
  9988  6.0909e-02  4.3180e-04  4.1614e-04  4.3005e-04  6.6559e-04  2.3314e-03  0:00:21   12

 Reversed flow on 4385 faces (100.0% area) of pressure-outlet 24.

 Reversed flow on 1537 faces (73.6% area) of pressure-outlet 25.

  iter  continuity  x-velocity  y-velocity  z-velocity           k     epsilon     time/iter
  9989  6.0578e-02  4.3798e-04  4.2073e-04  4.3295e-04  6.6797e-04  2.3251e-03  0:00:20   11

 Reversed flow on 4385 faces (100.0% area) of pressure-outlet 24.

 Reversed flow on 1533 faces (73.3% area) of pressure-outlet 25.
  9990  6.0258e-02  4.4195e-04  4.2601e-04  4.3628e-04  6.7039e-04  2.3052e-03  0:00:16   10

 Reversed flow on 4385 faces (100.0% area) of pressure-outlet 24.

 Reversed flow on 1535 faces (73.4% area) of pressure-outlet 25.
  9991  6.0124e-02  4.4951e-04  4.3399e-04  4.4070e-04  6.7454e-04  2.3138e-03  0:00:15    9

 Reversed flow on 4385 faces (100.0% area) of pressure-outlet 24.

 Reversed flow on 1535 faces (73.4% area) of pressure-outlet 25.
  9992  6.0006e-02  4.5680e-04  4.4304e-04  4.4620e-04  6.7572e-04  2.2660e-03  0:00:13    8

 Reversed flow on 4385 faces (100.0% area) of pressure-outlet 24.

 Reversed flow on 1538 faces (73.6% area) of pressure-outlet 25.
  9993  6.0010e-02  4.6694e-04  4.5482e-04  4.5352e-04  6.7798e-04  2.2431e-03  0:00:12    7

 Reversed flow on 4385 faces (100.0% area) of pressure-outlet 24.

 Reversed flow on 1535 faces (73.4% area) of pressure-outlet 25.
  9994  6.0147e-02  4.7597e-04  4.6664e-04  4.6213e-04  6.7663e-04  2.2188e-03  0:00:09    6

 Reversed flow on 4385 faces (100.0% area) of pressure-outlet 24.

 Reversed flow on 1534 faces (73.4% area) of pressure-outlet 25.
  9995  6.0594e-02  4.8871e-04  4.7884e-04  4.7130e-04  6.7040e-04  2.2002e-03  0:00:09    5

 Reversed flow on 4385 faces (100.0% area) of pressure-outlet 24.

 Reversed flow on 1533 faces (73.4% area) of pressure-outlet 25.
  9996  6.1229e-02  4.9981e-04  4.8935e-04  4.8165e-04  6.6584e-04  2.1232e-03  0:00:07    4

 Reversed flow on 4385 faces (100.0% area) of pressure-outlet 24.

 Reversed flow on 1536 faces (73.5% area) of pressure-outlet 25.
  9997  6.1898e-02  5.1308e-04  5.0101e-04  4.9338e-04  6.7164e-04  2.1174e-03  0:00:05    3

 Reversed flow on 4385 faces (100.0% area) of pressure-outlet 24.

 Reversed flow on 1536 faces (73.5% area) of pressure-outlet 25.
  9998  6.2627e-02  5.2406e-04  5.1296e-04  5.0605e-04  6.8945e-04  2.1776e-03  0:00:04    2

 Reversed flow on 4385 faces (100.0% area) of pressure-outlet 24.

 Reversed flow on 1534 faces (73.4% area) of pressure-outlet 25.
  9999  6.3273e-02  5.3842e-04  5.2670e-04  5.2112e-04  7.2181e-04  2.3337e-03  0:00:02    1

 Reversed flow on 4385 faces (100.0% area) of pressure-outlet 24.

 Reversed flow on 1537 faces (73.5% area) of pressure-outlet 25.

  iter  continuity  x-velocity  y-velocity  z-velocity           k     epsilon     time/iter
 10000  6.3973e-02  5.5300e-04  5.3960e-04  5.3620e-04  7.6659e-04  2.5456e-03  0:00:00    0

> ;/solve/set/time-step 0.01
;solve/set/data-sampling y 1 y y
;/solve/dual-time-iterate 5000 10

adjoint/                file/                   report/
define/                 mesh/                   solve/
display/                parallel/               surface/
exit                    plot/                   views/

> ; set save
;no .h5 format

adjoint/                file/                   report/
define/                 mesh/                   solve/
display/                parallel/               surface/
exit                    plot/                   views/

> /file/cff-files? n

> ;/file/autosave/root-name "Me_317"
/file/write-case-data "E:\LGF\Sim\task\0825_1\P_85\FluentData_M100_-5000_85.cas"
Writing "E:\LGF\Sim\task\0825_1\P_85\FluentData_M100_-5000_85.cas"...

    6990 mixed cells, zone 15, binary.
  565192 mixed cells, zone 16, binary.
  128494 mixed cells, zone 17, binary.
   99631 mixed cells, zone 18, binary.
  112217 mixed cells, zone 19, binary.
    6990 cell partition ids, zone 15, 100 partitions, binary.
  565192 cell partition ids, zone 16, 100 partitions, binary.
  128494 cell partition ids, zone 17, 100 partitions, binary.
   99631 cell partition ids, zone 18, 100 partitions, binary.
  112217 cell partition ids, zone 19, 100 partitions, binary.
    3768 mixed wall faces, zone  1, binary.
   34998 triangular wall faces, zone  2, binary.
    6023 triangular wall faces, zone  3, binary.
   11483 triangular wall faces, zone  4, binary.
    5640 triangular wall faces, zone  5, binary.
    2602 triangular interior faces, zone  6, binary.
     310 quadrilateral interior faces, zone  7, binary.
    2662 mixed interior faces, zone  8, binary.
    2776 mixed interior faces, zone  9, binary.
   18821 mixed interior faces, zone 10, binary.
 1189685 mixed interior faces, zone 11, binary.
  263371 mixed interior faces, zone 12, binary.
  203749 mixed interior faces, zone 13, binary.
  217848 triangular interior faces, zone 14, binary.
     637 triangular pressure-outlet faces, zone 22, binary.
     100 quadrilateral velocity-inlet faces, zone 23, binary.
    4385 mixed pressure-outlet faces, zone 24, binary.
    2646 mixed pressure-outlet faces, zone 25, binary.
    1906 triangular velocity-inlet faces, zone 26, binary.
    4293 triangular wall faces, zone 27, binary.
    4279 triangular wall faces, zone 28, binary.
  252813 nodes, binary.
  252813 node flags, binary.
Done.


Writing "E:\LGF\Sim\task\0825_1\P_85\FluentData_M100_-5000_85.dat"...

Done.



> ;/display/save-picture "E:\LGF\Sim\task\0825_1\P_85\FluentData_M100_-5000_85jpg"
/exit/c