
              Welcome to ANSYS Fluent 2020 R1

              Copyright 1987-2020 ANSYS, Inc. All Rights Reserved.
              Unauthorized use, distribution or duplication is prohibited.
              This product is subject to U.S. laws governing export and re-export.
              For full Legal Notice, see documentation.

Build Time: Dec  2 2019 14:15:26 EST  Build Id: 10114  
 
Host spawning Node 0 on machine "DESKTOP-8RUTNJQ" (win64).
WARNING: No cached password or password provided.
         use '-pass' or '-cache' to provide password
Host 0 -- ip 192.168.161.95 -- ranks 0 - 99

 host | 0
======|======
    0 : SHM

 Prot -  All Intra-node communication is: SHM


-------------------------------------------------------------------------------
ID    Hostname         Core     O.S.         PID     Vendor        
-------------------------------------------------------------------------------
n99   DESKTOP-8RUTNJQ  100/128  Windows-x64  141820  AMD EPYC 7702 
n98   DESKTOP-8RUTNJQ  99/128   Windows-x64  135272  AMD EPYC 7702 
n97   DESKTOP-8RUTNJQ  98/128   Windows-x64  144140  AMD EPYC 7702 
n96   DESKTOP-8RUTNJQ  97/128   Windows-x64  137736  AMD EPYC 7702 
n95   DESKTOP-8RUTNJQ  96/128   Windows-x64  138152  AMD EPYC 7702 
n94   DESKTOP-8RUTNJQ  95/128   Windows-x64  142036  AMD EPYC 7702 
n93   DESKTOP-8RUTNJQ  94/128   Windows-x64  135232  AMD EPYC 7702 
n92   DESKTOP-8RUTNJQ  93/128   Windows-x64  186924  AMD EPYC 7702 
n91   DESKTOP-8RUTNJQ  92/128   Windows-x64  153224  AMD EPYC 7702 
n90   DESKTOP-8RUTNJQ  91/128   Windows-x64  129984  AMD EPYC 7702 
n89   DESKTOP-8RUTNJQ  90/128   Windows-x64  166336  AMD EPYC 7702 
n88   DESKTOP-8RUTNJQ  89/128   Windows-x64  165680  AMD EPYC 7702 
n87   DESKTOP-8RUTNJQ  88/128   Windows-x64  164860  AMD EPYC 7702 
n86   DESKTOP-8RUTNJQ  87/128   Windows-x64  163956  AMD EPYC 7702 
n85   DESKTOP-8RUTNJQ  86/128   Windows-x64  162432  AMD EPYC 7702 
n84   DESKTOP-8RUTNJQ  85/128   Windows-x64  160732  AMD EPYC 7702 
n83   DESKTOP-8RUTNJQ  84/128   Windows-x64  166388  AMD EPYC 7702 
n82   DESKTOP-8RUTNJQ  83/128   Windows-x64  165784  AMD EPYC 7702 
n81   DESKTOP-8RUTNJQ  82/128   Windows-x64  151528  AMD EPYC 7702 
n80   DESKTOP-8RUTNJQ  81/128   Windows-x64  163980  AMD EPYC 7702 
-------------------------------------------------------------------------------
ID    Hostname         Core     O.S.         PID     Vendor        
-------------------------------------------------------------------------------
n79   DESKTOP-8RUTNJQ  80/128   Windows-x64  162972  AMD EPYC 7702 
n78   DESKTOP-8RUTNJQ  79/128   Windows-x64  163248  AMD EPYC 7702 
n77   DESKTOP-8RUTNJQ  78/128   Windows-x64  166240  AMD EPYC 7702 
n76   DESKTOP-8RUTNJQ  77/128   Windows-x64  155528  AMD EPYC 7702 
n75   DESKTOP-8RUTNJQ  76/128   Windows-x64  168440  AMD EPYC 7702 
n74   DESKTOP-8RUTNJQ  75/128   Windows-x64  160956  AMD EPYC 7702 
n73   DESKTOP-8RUTNJQ  74/128   Windows-x64  163968  AMD EPYC 7702 
n72   DESKTOP-8RUTNJQ  73/128   Windows-x64  154408  AMD EPYC 7702 
n71   DESKTOP-8RUTNJQ  72/128   Windows-x64  165400  AMD EPYC 7702 
n70   DESKTOP-8RUTNJQ  71/128   Windows-x64  145308  AMD EPYC 7702 
n69   DESKTOP-8RUTNJQ  70/128   Windows-x64  163532  AMD EPYC 7702 
n68   DESKTOP-8RUTNJQ  69/128   Windows-x64  165168  AMD EPYC 7702 
n67   DESKTOP-8RUTNJQ  68/128   Windows-x64  98564   AMD EPYC 7702 
n66   DESKTOP-8RUTNJQ  67/128   Windows-x64  161992  AMD EPYC 7702 
n65   DESKTOP-8RUTNJQ  66/128   Windows-x64  163152  AMD EPYC 7702 
n64   DESKTOP-8RUTNJQ  65/128   Windows-x64  163272  AMD EPYC 7702 
n63   DESKTOP-8RUTNJQ  64/128   Windows-x64  166176  AMD EPYC 7702 
n62   DESKTOP-8RUTNJQ  63/128   Windows-x64  163360  AMD EPYC 7702 
n61   DESKTOP-8RUTNJQ  62/128   Windows-x64  87548   AMD EPYC 7702 
n60   DESKTOP-8RUTNJQ  61/128   Windows-x64  161392  AMD EPYC 7702 
-------------------------------------------------------------------------------
ID    Hostname         Core     O.S.         PID     Vendor        
-------------------------------------------------------------------------------
n59   DESKTOP-8RUTNJQ  60/128   Windows-x64  165512  AMD EPYC 7702 
n58   DESKTOP-8RUTNJQ  59/128   Windows-x64  164896  AMD EPYC 7702 
n57   DESKTOP-8RUTNJQ  58/128   Windows-x64  163408  AMD EPYC 7702 
n56   DESKTOP-8RUTNJQ  57/128   Windows-x64  162676  AMD EPYC 7702 
n55   DESKTOP-8RUTNJQ  56/128   Windows-x64  162320  AMD EPYC 7702 
n54   DESKTOP-8RUTNJQ  55/128   Windows-x64  160516  AMD EPYC 7702 
n53   DESKTOP-8RUTNJQ  54/128   Windows-x64  159620  AMD EPYC 7702 
n52   DESKTOP-8RUTNJQ  53/128   Windows-x64  157552  AMD EPYC 7702 
n51   DESKTOP-8RUTNJQ  52/128   Windows-x64  151212  AMD EPYC 7702 
n50   DESKTOP-8RUTNJQ  51/128   Windows-x64  6948    AMD EPYC 7702 
n49   DESKTOP-8RUTNJQ  50/128   Windows-x64  161456  AMD EPYC 7702 
n48   DESKTOP-8RUTNJQ  49/128   Windows-x64  166296  AMD EPYC 7702 
n47   DESKTOP-8RUTNJQ  48/128   Windows-x64  156088  AMD EPYC 7702 
n46   DESKTOP-8RUTNJQ  47/128   Windows-x64  162452  AMD EPYC 7702 
n45   DESKTOP-8RUTNJQ  46/128   Windows-x64  164704  AMD EPYC 7702 
n44   DESKTOP-8RUTNJQ  45/128   Windows-x64  164020  AMD EPYC 7702 
n43   DESKTOP-8RUTNJQ  44/128   Windows-x64  161420  AMD EPYC 7702 
n42   DESKTOP-8RUTNJQ  43/128   Windows-x64  158848  AMD EPYC 7702 
n41   DESKTOP-8RUTNJQ  42/128   Windows-x64  158832  AMD EPYC 7702 
n40   DESKTOP-8RUTNJQ  41/128   Windows-x64  158864  AMD EPYC 7702 
-------------------------------------------------------------------------------
ID    Hostname         Core     O.S.         PID     Vendor        
-------------------------------------------------------------------------------
n39   DESKTOP-8RUTNJQ  40/128   Windows-x64  166044  AMD EPYC 7702 
n38   DESKTOP-8RUTNJQ  39/128   Windows-x64  162024  AMD EPYC 7702 
n37   DESKTOP-8RUTNJQ  38/128   Windows-x64  160244  AMD EPYC 7702 
n36   DESKTOP-8RUTNJQ  37/128   Windows-x64  160844  AMD EPYC 7702 
n35   DESKTOP-8RUTNJQ  36/128   Windows-x64  157548  AMD EPYC 7702 
n34   DESKTOP-8RUTNJQ  35/128   Windows-x64  146484  AMD EPYC 7702 
n33   DESKTOP-8RUTNJQ  34/128   Windows-x64  4660    AMD EPYC 7702 
n32   DESKTOP-8RUTNJQ  33/128   Windows-x64  158916  AMD EPYC 7702 
n31   DESKTOP-8RUTNJQ  32/128   Windows-x64  145808  AMD EPYC 7702 
n30   DESKTOP-8RUTNJQ  31/128   Windows-x64  157084  AMD EPYC 7702 
n29   DESKTOP-8RUTNJQ  30/128   Windows-x64  161636  AMD EPYC 7702 
n28   DESKTOP-8RUTNJQ  29/128   Windows-x64  154596  AMD EPYC 7702 
n27   DESKTOP-8RUTNJQ  28/128   Windows-x64  161696  AMD EPYC 7702 
n26   DESKTOP-8RUTNJQ  27/128   Windows-x64  158896  AMD EPYC 7702 
n25   DESKTOP-8RUTNJQ  26/128   Windows-x64  161572  AMD EPYC 7702 
n24   DESKTOP-8RUTNJQ  25/128   Windows-x64  162592  AMD EPYC 7702 
n23   DESKTOP-8RUTNJQ  24/128   Windows-x64  163060  AMD EPYC 7702 
n22   DESKTOP-8RUTNJQ  23/128   Windows-x64  88204   AMD EPYC 7702 
n21   DESKTOP-8RUTNJQ  22/128   Windows-x64  144712  AMD EPYC 7702 
n20   DESKTOP-8RUTNJQ  21/128   Windows-x64  147880  AMD EPYC 7702 
-------------------------------------------------------------------------------
ID    Hostname         Core     O.S.         PID     Vendor        
-------------------------------------------------------------------------------
n19   DESKTOP-8RUTNJQ  20/128   Windows-x64  163260  AMD EPYC 7702 
n18   DESKTOP-8RUTNJQ  19/128   Windows-x64  160800  AMD EPYC 7702 
n17   DESKTOP-8RUTNJQ  18/128   Windows-x64  163236  AMD EPYC 7702 
n16   DESKTOP-8RUTNJQ  17/128   Windows-x64  159512  AMD EPYC 7702 
n15   DESKTOP-8RUTNJQ  16/128   Windows-x64  161488  AMD EPYC 7702 
n14   DESKTOP-8RUTNJQ  15/128   Windows-x64  143780  AMD EPYC 7702 
n13   DESKTOP-8RUTNJQ  14/128   Windows-x64  158384  AMD EPYC 7702 
n12   DESKTOP-8RUTNJQ  13/128   Windows-x64  157264  AMD EPYC 7702 
n11   DESKTOP-8RUTNJQ  12/128   Windows-x64  160336  AMD EPYC 7702 
n10   DESKTOP-8RUTNJQ  11/128   Windows-x64  128284  AMD EPYC 7702 
n9    DESKTOP-8RUTNJQ  10/128   Windows-x64  159364  AMD EPYC 7702 
n8    DESKTOP-8RUTNJQ  9/128    Windows-x64  155820  AMD EPYC 7702 
n7    DESKTOP-8RUTNJQ  8/128    Windows-x64  85768   AMD EPYC 7702 
n6    DESKTOP-8RUTNJQ  7/128    Windows-x64  155228  AMD EPYC 7702 
n5    DESKTOP-8RUTNJQ  6/128    Windows-x64  160704  AMD EPYC 7702 
n4    DESKTOP-8RUTNJQ  5/128    Windows-x64  158892  AMD EPYC 7702 
n3    DESKTOP-8RUTNJQ  4/128    Windows-x64  154872  AMD EPYC 7702 
n2    DESKTOP-8RUTNJQ  3/128    Windows-x64  158372  AMD EPYC 7702 
n1    DESKTOP-8RUTNJQ  2/128    Windows-x64  161436  AMD EPYC 7702 
n0*   DESKTOP-8RUTNJQ  1/128    Windows-x64  157720  AMD EPYC 7702 
host  DESKTOP-8RUTNJQ           Windows-x64  155400  AMD EPYC 7702 

MPI Option Selected: ibmmpi
Selected system interconnect: default
-------------------------------------------------------------------------------



Cleanup script file is E:\LGF\Sim\Script\\cleanup-fluent-DESKTOP-8RUTNJQ-161096.bat

Reading journal file E:\LGF\Sim\task\0826_1\P_85\J_M100_85_-2000.jou...

> ;Read case
/file/read-case E:\LGF\Sim\basic_Mesh\Model_100.msh

4: Affinity not set!

50: Affinity not set!

42: Affinity not set!

44: Affinity not set!

52: Affinity not set!

80: Affinity not set!

84: Affinity not set!

98: Affinity not set!

0: Affinity not set!

6: Affinity not set!

10: Affinity not set!

12: Affinity not set!

16: Affinity not set!

22: Affinity not set!

28: Affinity not set!

36: Affinity not set!

38: Affinity not set!

40: Affinity not set!

48: Affinity not set!

49: Affinity not set!

56: Affinity not set!

58: Affinity not set!

68: Affinity not set!

72: Affinity not set!

74: Affinity not set!

78: Affinity not set!

92: Affinity not set!

94: Affinity not set!

5: Affinity not set!

8: Affinity not set!

18: Affinity not set!

23: Affinity not set!

24: Affinity not set!

26: Affinity not set!

32: Affinity not set!

54: Affinity not set!

59: Affinity not set!

62: Affinity not set!

64: Affinity not set!

70: Affinity not set!

88: Affinity not set!

90: Affinity not set!

11: Affinity not set!

19: Affinity not set!

21: Affinity not set!

31: Affinity not set!

39: Affinity not set!

46: Affinity not set!

66: Affinity not set!

73: Affinity not set!

75: Affinity not set!

85: Affinity not set!

69: Affinity not set!

Reading "E:\LGF\Sim\basic_Mesh\Model_100.msh"...

Buffering for file scan...

  209972 nodes, binary.
   42841 nodes, binary.
    3768 mixed wall faces, zone  1, binary.
   34998 triangular wall faces, zone  2, binary.
    6023 triangular wall faces, zone  3, binary.
   11483 triangular wall faces, zone  4, binary.
    5640 triangular wall faces, zone  5, binary.
    2602 triangular interior faces, zone  6, binary.
     310 quadrilateral interior faces, zone  7, binary.
    2662 mixed interior faces, zone  8, binary.
    2776 mixed interior faces, zone  9, binary.
   18821 mixed interior faces, zone 10, binary.
 1189685 mixed interior faces, zone 11, binary.
  263371 mixed interior faces, zone 12, binary.
  203749 mixed interior faces, zone 13, binary.
  217848 triangular interior faces, zone 14, binary.
     637 triangular wall faces, zone 22, binary.
     100 quadrilateral wall faces, zone 23, binary.
    4385 mixed wall faces, zone 24, binary.
    2646 mixed wall faces, zone 25, binary.
    1906 triangular wall faces, zone 26, binary.
    4293 triangular wall faces, zone 27, binary.
    4279 triangular wall faces, zone 28, binary.
    6990 mixed cells, zone 15, binary.
  565192 mixed cells, zone 16, binary.
  128494 mixed cells, zone 17, binary.
   99631 mixed cells, zone 18, binary.
  112217 mixed cells, zone 19, binary.

Building...
     mesh
	auto partitioning mesh by Metis (fast),
	distributing mesh
		parts..................................................,
		faces..................................................,
		nodes..................................................,
		cells..................................................,
        bandwidth reduction using Reverse Cuthill-McKee: 9508/523 = 18.1797
     materials,
     interface,
     domains,
     zones,
	wall_tx_xi
	wall_xi_tx
	i2
	p2
	p1
	i1
	o1
	towparts-xi_zhui
	towparts-tc_tc
	towparts-tx_tx
	towparts-block_block
	towparts-xi_huan
	interior-towparts-xi_zhui
	interior-towparts-tc_tc
	interior-towparts-tx_tx
	interior-towparts-block_block
	interior-towparts-xi_huan
	interior-towparts-block_block-towparts-tc_tc
	interior-towparts-block_block-towparts-tx_tx
	interior-towparts-xi_huan-towparts-xi_zhui
	interior-towparts-block_block-towparts-xi_zhui
	wall-towparts-xi_zhui
	wall-towparts-tc_tc
	wall-towparts-tx_tx
	wall-towparts-block_block
	wall-towparts-xi_huan
     parallel,
Done.

> 
adjoint/                file/                   report/
define/                 mesh/                   solve/
display/                parallel/               surface/
exit                    plot/                   views/

> ; set save
;;/file/auto-save/data-frequency 2000
;;/file/auto-save/case-frequency each-time
;;/file/autosave/root-name "30du.msh.gz"

adjoint/                file/                   report/
define/                 mesh/                   solve/
display/                parallel/               surface/
exit                    plot/                   views/

> ;delete mesh interface
;/define/mesh-interface/delete contact_region

adjoint/                file/                   report/
define/                 mesh/                   solve/
display/                parallel/               surface/
exit                    plot/                   views/

> ;/define/operating-conditions/gravity/ y 0 -9.8 6

adjoint/                file/                   report/
define/                 mesh/                   solve/
display/                parallel/               surface/
exit                    plot/                   views/

> ;scale
;;/mesh/scale 0.125 0.125 0.125

adjoint/                file/                   report/
define/                 mesh/                   solve/
display/                parallel/               surface/
exit                    plot/                   views/

> ;general

adjoint/                file/                   report/
define/                 mesh/                   solve/
display/                parallel/               surface/
exit                    plot/                   views/

> /define/operating-conditions? invalid command [operating-conditions?]
y 0.0 -9.8 0.0

> 
adjoint/                file/                   report/
define/                 mesh/                   solve/
display/                parallel/               surface/
exit                    plot/                   views/

> /define/models steady? Steady solution model is already enabled.
y
invalid command [y]

> ;/define/models unsteady-1st-order? y

adjoint/                file/                   report/
define/                 mesh/                   solve/
display/                parallel/               surface/
exit                    plot/                   views/

> 
adjoint/                file/                   report/
define/                 mesh/                   solve/
display/                parallel/               surface/
exit                    plot/                   views/

> ;define viscous model

adjoint/                file/                   report/
define/                 mesh/                   solve/
display/                parallel/               surface/
exit                    plot/                   views/

> /define/models/viscous/ke-rng? y   ;;swirl?
/define/models/viscous/rng-swirl-model? yes

> 
adjoint/                file/                   report/
define/                 mesh/                   solve/
display/                parallel/               surface/
exit                    plot/                   views/

> 
adjoint/                file/                   report/
define/                 mesh/                   solve/
display/                parallel/               surface/
exit                    plot/                   views/

> ;/define/models/viscous/ke-rng-swirl-model? y
;/define/models/viscous/ke-rng/rng-swirl-model? y

adjoint/                file/                   report/
define/                 mesh/                   solve/
display/                parallel/               surface/
exit                    plot/                   views/

> 
adjoint/                file/                   report/
define/                 mesh/                   solve/
display/                parallel/               surface/
exit                    plot/                   views/

> ;/define/models/viscous/ke-realizable? y            

adjoint/                file/                   report/
define/                 mesh/                   solve/
display/                parallel/               surface/
exit                    plot/                   views/

> 
adjoint/                file/                   report/
define/                 mesh/                   solve/
display/                parallel/               surface/
exit                    plot/                   views/

> ; modify boundary-condition types

adjoint/                file/                   report/
define/                 mesh/                   solve/
display/                parallel/               surface/
exit                    plot/                   views/

> ;/define/boundary-conditions/zone-type contact_region-src wall
;/define/boundary-conditions/zone-type contact_region-trg wall
/define/boundary-conditions/zone-type i1 velocity-inlet

> /define/boundary-conditions/zone-type i2 velocity-inlet

> 
adjoint/                file/                   report/
define/                 mesh/                   solve/
display/                parallel/               surface/
exit                    plot/                   views/

> /define/boundary-conditions/zone-type o1 pressure-outlet

> /define/boundary-conditions/zone-type p1 pressure-outlet

> /define/boundary-conditions/zone-type p2 pressure-outlet

> 
adjoint/                file/                   report/
define/                 mesh/                   solve/
display/                parallel/               surface/
exit                    plot/                   views/

> ;set inlet boundary-conditions
/define/boundary-conditions/velocity-inlet (i2 i1)
i2  n n y y n 10 n 0 n n y 5 10

> /define/boundary-conditions/velocity-inlet (i2 i1)
i1  n n y y n 85 n 0 n n y 5 10

> /define/boundary-conditions/pressure-outlet (p2 p1 o1)
o1  y n -2000 n y n n y 5 10 y n n n

> /define/boundary-conditions/pressure-outlet (p2 p1 o1)
p1  y n 0 n y n n y 5 10 y n n n 

> /define/boundary-conditions/pressure-outlet (p2 p1 o1)
p2  y n 0 n y n n y 5 10 y n n n 

> 
adjoint/                file/                   report/
define/                 mesh/                   solve/
display/                parallel/               surface/
exit                    plot/                   views/

> ;;;;n y y n 0 y n 51.96 n 30 n 0 y n 1 n 1
;/define/boundary-conditions/copy-bc inlet front ()
;/define/boundary-conditions/wall lj y motion-bc-moving n n n n 11.11 1 0 0 n n 0 n 0.5

adjoint/                file/                   report/
define/                 mesh/                   solve/
display/                parallel/               surface/
exit                    plot/                   views/

> ; set solution controls
;/solve/set/p-v-coupling 21
;20: SIMPLE
;21: SIMPLEC
;22: PISO
;24: coupled
;/solve/set/under-relaxation pressure 0.5
;/solve/set/under-relaxation density 0.8
;/solve/set/under-relaxation body-force  0.8
;/solve/set/under-relaxation mom 0.5
;/solve/set/under-relaxation turb-viscosity 0.6
;/solve/set/under-relaxation k 0.6
;/solve/set/under-relaxation epsilon 0.6
;/solve/set/under-relaxation body-force 0.8 turb-viscosity 0.8 density 0.8
;/solve/set/discretization-scheme pressure 10 mom 1 k 1 epsilon 1

adjoint/                file/                   report/
define/                 mesh/                   solve/
display/                parallel/               surface/
exit                    plot/                   views/

> ;set pressure
;10:standard
;11:linear
;12:second order
;13:body force weighted
;14:presto!

adjoint/                file/                   report/
define/                 mesh/                   solve/
display/                parallel/               surface/
exit                    plot/                   views/

> ;set mom
;0:firdst order upwind
;1:second order upwind
;2:power law
;4:quick
;6:third-order muscl

adjoint/                file/                   report/
define/                 mesh/                   solve/
display/                parallel/               surface/
exit                    plot/                   views/

> ;set k
;0:firdst order upwind
;1:second order upwind
;2:power law
;4:quick
;6:third-order muscl

adjoint/                file/                   report/
define/                 mesh/                   solve/
display/                parallel/               surface/
exit                    plot/                   views/

> ;set epdst order upwind
;1:second order upwind
;2:power law
;4:silon
;0:firquick
;6:third-order muscl
;;;;;;;;;;;;;;;;;;;;;;;;;;;;;;;
;;;;;;;;;;;;;;;;;;;;;;;;;;;;;;set monitor point line surface
;;;;;;;;;;;;;;;;;;;;;;;;;;;;;;
/surface/point-surface/ cirPoint1 1.8 2 7

> /surface/point-surface/ cirPoint2 1.5 2 7

> /surface/point-surface/ cirPoint3 1 2 7

> /surface/point-surface/ cirPoint4 0 2 7

> /surface/point-surface/ cirPoint1_synYZ -1.8 2 7

> /surface/point-surface/ cirPoint2_synYZ -1.5 2 7

> /surface/point-surface/ cirPoint3_synYZ -1 2 7

> /surface/point-surface/ cirPoint1_synO -1.8 -2 7

> /surface/point-surface/ cirPoint2_synO -1.5 -2 7

> /surface/point-surface/ cirPoint3_synO -1 -2 7

> 
adjoint/                file/                   report/
define/                 mesh/                   solve/
display/                parallel/               surface/
exit                    plot/                   views/

> /surface/line-surface/ line_1 0 0 2 0 0 7

> 
adjoint/                file/                   report/
define/                 mesh/                   solve/
display/                parallel/               surface/
exit                    plot/                   views/

> /surface/line-surface/ line_2 1 2 2 1 2 7

> /surface/line-surface/ line_2_synYZ -1 2 2 -1 2 7

> 
adjoint/                file/                   report/
define/                 mesh/                   solve/
display/                parallel/               surface/
exit                    plot/                   views/

> /surface/line-surface/ line_3 1.5 2 2 1.5 2 7

> /surface/line-surface/ line_3_synYZ -1.5 2 2 -1.5 2 7

> 
adjoint/                file/                   report/
define/                 mesh/                   solve/
display/                parallel/               surface/
exit                    plot/                   views/

> 
adjoint/                file/                   report/
define/                 mesh/                   solve/
display/                parallel/               surface/
exit                    plot/                   views/

> 
adjoint/                file/                   report/
define/                 mesh/                   solve/
display/                parallel/               surface/
exit                    plot/                   views/

> 
adjoint/                file/                   report/
define/                 mesh/                   solve/
display/                parallel/               surface/
exit                    plot/                   views/

> 
adjoint/                file/                   report/
define/                 mesh/                   solve/
display/                parallel/               surface/
exit                    plot/                   views/

> /surface/plane-slice/ YuanPian_0_0_3 0 0 1 3

> /surface/plane-slice/ YuanPian_0_0_4 0 0 1 4

> /surface/plane-slice/ YuanPian_0_0_5 0 0 1 5

> /surface/plane-slice/ YuanPian_0_0_6 0 0 1 6

> /surface/plane-slice/ YuanPian_0_0_7 0 0 1 7

> 
adjoint/                file/                   report/
define/                 mesh/                   solve/
display/                parallel/               surface/
exit                    plot/                   views/

> /surface/transform-surface/ 10 ()
Center Of Rotation
 0 0 0 
Angle of Rotation
0 0 0 
Translation Distance
0 0 0 0 xiKou 

> 
adjoint/                file/                   report/
define/                 mesh/                   solve/
display/                parallel/               surface/
exit                    plot/                   views/

> 
adjoint/                file/                   report/
define/                 mesh/                   solve/
display/                parallel/               surface/
exit                    plot/                   views/

> 
adjoint/                file/                   report/
define/                 mesh/                   solve/
display/                parallel/               surface/
exit                    plot/                   views/

> 
adjoint/                file/                   report/
define/                 mesh/                   solve/
display/                parallel/               surface/
exit                    plot/                   views/

> ;/solve/monitors/surface/set-monitor miao_V_huan_2 ? velocity-magnitude miao31 miao32 miao33 miao34 miao35 miao36   n n y miao_V_huan_2 100

adjoint/                file/                   report/
define/                 mesh/                   solve/
display/                parallel/               surface/
exit                    plot/                   views/

> 
adjoint/                file/                   report/
define/                 mesh/                   solve/
display/                parallel/               surface/
exit                    plot/                   views/

> /solve/monitors/surface/set-monitor cirPoint1  "Sum" velocity-magnitude cirPoint1 () n n y E:\LGF\Sim\task\0826_1\P_85\txtData\cirPoint1_-2000.txt 100
Information: Converting monitor cirpoint1 to report definition.

> /solve/monitors/surface/set-monitor cirPoint2  "Sum" velocity-magnitude cirPoint2 () n n y E:\LGF\Sim\task\0826_1\P_85\txtData\cirPoint2_-2000.txt 100
Information: Converting monitor cirpoint2 to report definition.

> /solve/monitors/surface/set-monitor cirPoint3  "Sum" velocity-magnitude cirPoint3 () n n y E:\LGF\Sim\task\0826_1\P_85\txtData\cirPoint3_-2000.txt 100
Information: Converting monitor cirpoint3 to report definition.

> /solve/monitors/surface/set-monitor cirPoint1-2  "Sum" velocity-magnitude cirPoint1 cirPoint2 () n n y E:\LGF\Sim\task\0826_1\P_85\txtData\cirPoint1-2_-2000.txt 100
Information: Converting monitor cirpoint1-2 to report definition.

> 
adjoint/                file/                   report/
define/                 mesh/                   solve/
display/                parallel/               surface/
exit                    plot/                   views/

> /solve/monitors/surface/set-monitor line_1   "Facet Average" velocity-magnitude line_1 () n n y E:\LGF\Sim\task\0826_1\P_85\txtData\line_1_-2000.txt 100
Information: Converting monitor line_1 to report definition.

> /solve/monitors/surface/set-monitor line_2   "Facet Average" velocity-magnitude line_2 () n n y E:\LGF\Sim\task\0826_1\P_85\txtData\line_2_-2000.txt 100
Information: Converting monitor line_2 to report definition.

> 
adjoint/                file/                   report/
define/                 mesh/                   solve/
display/                parallel/               surface/
exit                    plot/                   views/

> /solve/monitors/surface/set-monitor YuanPian_0_0_5   "Facet Average" velocity-magnitude YuanPian_0_0_5 () n n y E:\LGF\Sim\task\0826_1\P_85\txtData\YuanPian_0_0_5_-2000.txt 100
Information: Converting monitor yuanpian_0_0_5 to report definition.

> 
adjoint/                file/                   report/
define/                 mesh/                   solve/
display/                parallel/               surface/
exit                    plot/                   views/

> /solve/monitors/surface/set-monitor xiKou   "Facet Average" velocity-magnitude xiKou () n n y E:\LGF\Sim\task\0826_1\P_85\txtData\xiKou_-2000.txt 100
Information: Converting monitor xikou to report definition.

> 
adjoint/                file/                   report/
define/                 mesh/                   solve/
display/                parallel/               surface/
exit                    plot/                   views/

> ;/solve/monitors/surface/set-monitor miao_V_huan_4  "Sum" velocity-magnitude miao37 () n n y E:\LGF\Sim\task\0826_1\P_85\txtData\miao_V_huan_4_-2000.txt 100

adjoint/                file/                   report/
define/                 mesh/                   solve/
display/                parallel/               surface/
exit                    plot/                   views/

> ;set monitor residuals
/solve/monitors/residual/convergence-criteria 0.000001 0.000001 0.000001 0.000001 0.000001 0.000001

> 
adjoint/                file/                   report/
define/                 mesh/                   solve/
display/                parallel/               surface/
exit                    plot/                   views/

> ;set force monitors
;compile C
;/define/user-defined/compiled-functions/compile libudf yes FandMmonitor.c "" "" 
; load C
;/define/user-defined/compiled-functions/load libudf
;;    set hook
;/define/user-defined/function-hooks/execute-at-end "force_and_moment_print::libudf" "" 

adjoint/                file/                   report/
define/                 mesh/                   solve/
display/                parallel/               surface/
exit                    plot/                   views/

> ;/solve/monitors/force/set-drag-monitor cx y che1 zxj1 zxj2 che2 zxj3 zxj4 che3 zxj5 zxj6 () n y "cx-CRH380A" n y 1 0 0
;/solve/monitors/force/set-drag-monitor cy y che1 zxj1 zxj2 che2 zxj3 zxj4 che3 zxj5 zxj6 () n y "cy-1D-30" n y 0 1 0
;/solve/monitors/force/set-drag-monitor cz y che1 zxj1 zxj2 che2 zxj3 zxj4 che3 zxj5 zxj6 () n y "cz-CRH380A" n y 0 0 1

adjoint/                file/                   report/
define/                 mesh/                   solve/
display/                parallel/               surface/
exit                    plot/                   views/

> ;/solve/monitors/force/set-moment-monitor mx y che1 zxj1 zxj2 fd1 che2 zxj3 zxj4 fd2 che3 zxj5 zxj6 () n y "mx-1D-30" n y 0 0 0 1 0 0
;/solve/monitors/force/set-moment-monitor my y che1 zxj1 zxj2 fd1 che2 zxj3 zxj4 fd2 che3 zxj5 zxj6 () n y "my-1D-30" n y 0 0 0 0 1 0
;/solve/monitors/force/set-moment-monitor mz y che1 zxj1 zxj2 fd1 che2 zxj3 zxj4 fd2 che3 zxj5 zxj6 () n y "mz-1D-30" n y 0 0 0 0 0 1

adjoint/                file/                   report/
define/                 mesh/                   solve/
display/                parallel/               surface/
exit                    plot/                   views/

> 
adjoint/                file/                   report/
define/                 mesh/                   solve/
display/                parallel/               surface/
exit                    plot/                   views/

> ;init solve set
/solve/initialize/reference-frame Current Reference Frame : Relative to Cell Zoneabsolute

> /solve/initialize/initialize-flow

> ;solve/set/time-step 0.00005
/solve/iterate 500

  iter  continuity  x-velocity  y-velocity  z-velocity           k     epsilon     time/iter
     1  1.0000e+00  1.0570e+04  9.2552e+02  7.1127e+03  6.1253e-01  3.5043e+02  0:16:38  499

 Reversed flow on 4385 faces (100.0% area) of pressure-outlet 24.
     2  6.4310e-01  1.8693e-02  1.1260e-02  2.3558e-02  1.7513e-01  4.9152e-01  0:16:36  498

 Reversed flow on 4 faces (0.8% area) of pressure-outlet 22.

 Reversed flow on 519 faces (24.1% area) of pressure-outlet 25.
     3  6.3468e-01  3.0272e-02  2.5920e-02  1.6950e-02  1.3697e-01  4.8883e-01  0:18:13  497

 Reversed flow on 3 faces (0.6% area) of pressure-outlet 22.

 Reversed flow on 1224 faces (32.2% area) of pressure-outlet 24.

 Reversed flow on 941 faces (45.3% area) of pressure-outlet 25.
     4  6.2021e-01  1.5859e-02  1.4328e-02  1.2333e-02  4.9421e-02  4.2428e-01  0:16:12  496

 Reversed flow on 3 faces (0.6% area) of pressure-outlet 22.

 Reversed flow on 204 faces (5.9% area) of pressure-outlet 24.

 Reversed flow on 1162 faces (55.8% area) of pressure-outlet 25.
     5  5.9593e-01  1.2801e-02  1.1357e-02  6.6819e-03  2.7909e-02  3.4734e-01  0:17:53  495

 turbulent viscosity limited to viscosity ratio of 1.000000e+05 in 2156 cells 

 Reversed flow on 2 faces (0.4% area) of pressure-outlet 22.

 Reversed flow on 54 faces (1.6% area) of pressure-outlet 24.

 Reversed flow on 1340 faces (64.4% area) of pressure-outlet 25.
     6  6.0691e-01  1.0378e-02  9.1265e-03  6.6064e-03  1.8659e-02  2.0239e-01  0:17:34  494

 turbulent viscosity limited to viscosity ratio of 1.000000e+05 in 13091 cells 

 Reversed flow on 23 faces (0.7% area) of pressure-outlet 24.

 Reversed flow on 1393 faces (67.0% area) of pressure-outlet 25.
     7  5.9150e-01  8.0527e-03  7.2943e-03  5.2697e-03  2.1342e-02  9.4790e-02  0:17:19  493

 turbulent viscosity limited to viscosity ratio of 1.000000e+05 in 14955 cells 

 Reversed flow on 15 faces (0.4% area) of pressure-outlet 24.

 Reversed flow on 1455 faces (69.7% area) of pressure-outlet 25.
     8  5.9642e-01  6.8359e-03  6.5021e-03  4.9600e-03  1.8362e-02  1.1085e-01  0:18:45  492

 turbulent viscosity limited to viscosity ratio of 1.000000e+05 in 16578 cells 

 Reversed flow on 7 faces (0.2% area) of pressure-outlet 24.

 Reversed flow on 1454 faces (69.6% area) of pressure-outlet 25.
     9  5.8611e-01  5.8374e-03  5.4586e-03  4.5925e-03  1.7428e-02  9.2633e-02  0:18:14  491

 turbulent viscosity limited to viscosity ratio of 1.000000e+05 in 14920 cells 

 Reversed flow on 58 faces (0.5% area) of pressure-outlet 24.

 Reversed flow on 1479 faces (70.9% area) of pressure-outlet 25.
    10  5.7744e-01  5.1171e-03  4.8030e-03  4.5270e-03  1.4772e-02  7.2702e-02  0:17:50  490

 turbulent viscosity limited to viscosity ratio of 1.000000e+05 in 7874 cells 

 Reversed flow on 1238 faces (27.9% area) of pressure-outlet 24.

 Reversed flow on 1478 faces (70.9% area) of pressure-outlet 25.
    11  5.7437e-01  4.7544e-03  4.4462e-03  4.3813e-03  1.2032e-02  5.4091e-02  0:15:52  489

 turbulent viscosity limited to viscosity ratio of 1.000000e+05 in 142 cells 

 Reversed flow on 2082 faces (47.8% area) of pressure-outlet 24.

 Reversed flow on 1493 faces (71.5% area) of pressure-outlet 25.

  iter  continuity  x-velocity  y-velocity  z-velocity           k     epsilon     time/iter
    12  5.5370e-01  4.2499e-03  4.0194e-03  4.0578e-03  9.0380e-03  3.6978e-02  0:15:55  488

 turbulent viscosity limited to viscosity ratio of 1.000000e+05 in 342 cells 

 Reversed flow on 2406 faces (55.5% area) of pressure-outlet 24.

 Reversed flow on 1493 faces (71.5% area) of pressure-outlet 25.
    13  5.3509e-01  3.7265e-03  3.5598e-03  3.7431e-03  7.7048e-03  2.7548e-02  0:17:35  487

 turbulent viscosity limited to viscosity ratio of 1.000000e+05 in 1200 cells 

 Reversed flow on 2584 faces (59.9% area) of pressure-outlet 24.

 Reversed flow on 1489 faces (71.4% area) of pressure-outlet 25.
    14  5.2870e-01  3.4112e-03  3.3065e-03  3.6258e-03  7.8155e-03  2.3942e-02  0:17:16  486

 turbulent viscosity limited to viscosity ratio of 1.000000e+05 in 543 cells 

 Reversed flow on 2779 faces (64.3% area) of pressure-outlet 24.

 Reversed flow on 1483 faces (71.1% area) of pressure-outlet 25.
    15  5.2954e-01  3.1838e-03  3.1268e-03  3.5314e-03  8.2014e-03  2.1844e-02  0:17:01  485

 turbulent viscosity limited to viscosity ratio of 1.000000e+05 in 618 cells 

 Reversed flow on 3134 faces (72.7% area) of pressure-outlet 24.

 Reversed flow on 1468 faces (70.4% area) of pressure-outlet 25.
    16  5.2511e-01  2.9538e-03  2.9144e-03  3.3699e-03  7.8574e-03  2.1149e-02  0:15:12  484

 turbulent viscosity limited to viscosity ratio of 1.000000e+05 in 573 cells 

 Reversed flow on 3532 faces (82.5% area) of pressure-outlet 24.

 Reversed flow on 1460 faces (70.0% area) of pressure-outlet 25.
    17  5.1739e-01  2.7628e-03  2.7113e-03  3.2091e-03  7.4715e-03  2.1479e-02  0:15:22  483

 turbulent viscosity limited to viscosity ratio of 1.000000e+05 in 69 cells 

 Reversed flow on 3754 faces (88.0% area) of pressure-outlet 24.

 Reversed flow on 1458 faces (69.9% area) of pressure-outlet 25.
    18  5.0383e-01  2.5734e-03  2.5057e-03  3.0436e-03  6.9654e-03  2.1337e-02  0:15:28  482

 Reversed flow on 3878 faces (91.2% area) of pressure-outlet 24.

 Reversed flow on 1455 faces (69.7% area) of pressure-outlet 25.
    19  4.8735e-01  2.3971e-03  2.3292e-03  2.8909e-03  6.4914e-03  2.0928e-02  0:15:34  481

 Reversed flow on 3874 faces (91.9% area) of pressure-outlet 24.

 Reversed flow on 1460 faces (70.0% area) of pressure-outlet 25.
    20  4.7140e-01  2.2577e-03  2.1876e-03  2.7600e-03  6.0287e-03  2.0275e-02  0:17:13  480

 Reversed flow on 3741 faces (89.4% area) of pressure-outlet 24.

 Reversed flow on 1464 faces (70.1% area) of pressure-outlet 25.
    21  4.5969e-01  2.1595e-03  2.0951e-03  2.6644e-03  5.7074e-03  1.9195e-02  0:15:21  479

 Reversed flow on 3636 faces (87.0% area) of pressure-outlet 24.

 Reversed flow on 1463 faces (70.1% area) of pressure-outlet 25.
    22  4.5195e-01  2.1045e-03  2.0331e-03  2.5999e-03  5.4152e-03  1.7818e-02  0:17:02  478

 Reversed flow on 3599 faces (85.7% area) of pressure-outlet 24.

 Reversed flow on 1462 faces (70.0% area) of pressure-outlet 25.

  iter  continuity  x-velocity  y-velocity  z-velocity           k     epsilon     time/iter
    23  4.5012e-01  2.0768e-03  2.0151e-03  2.5629e-03  5.2368e-03  1.6109e-02  0:16:47  477

 Reversed flow on 3602 faces (85.5% area) of pressure-outlet 24.

 Reversed flow on 1461 faces (70.0% area) of pressure-outlet 25.
    24  4.5332e-01  2.0879e-03  2.0189e-03  2.5518e-03  5.1156e-03  1.4634e-02  0:14:59  476

 Reversed flow on 3607 faces (85.5% area) of pressure-outlet 24.

 Reversed flow on 1464 faces (70.1% area) of pressure-outlet 25.
    25  4.6111e-01  2.1124e-03  2.0547e-03  2.5609e-03  5.0615e-03  1.3422e-02  0:15:08  475

 turbulent viscosity limited to viscosity ratio of 1.000000e+05 in 1 cells 

 Reversed flow on 3595 faces (85.3% area) of pressure-outlet 24.

 Reversed flow on 1462 faces (70.0% area) of pressure-outlet 25.
    26  4.7201e-01  2.1493e-03  2.0929e-03  2.5783e-03  4.9755e-03  1.2549e-02  0:15:14  474

 turbulent viscosity limited to viscosity ratio of 1.000000e+05 in 2 cells 

 Reversed flow on 3592 faces (85.1% area) of pressure-outlet 24.

 Reversed flow on 1465 faces (70.2% area) of pressure-outlet 25.
    27  4.8328e-01  2.1586e-03  2.1329e-03  2.5925e-03  4.8501e-03  1.1465e-02  0:13:44  473

 turbulent viscosity limited to viscosity ratio of 1.000000e+05 in 14 cells 

 Reversed flow on 3600 faces (85.2% area) of pressure-outlet 24.

 Reversed flow on 1465 faces (70.2% area) of pressure-outlet 25.
    28  4.9160e-01  2.1539e-03  2.1391e-03  2.5935e-03  4.7534e-03  1.0848e-02  0:15:41  472

 turbulent viscosity limited to viscosity ratio of 1.000000e+05 in 18 cells 

 Reversed flow on 3594 faces (85.2% area) of pressure-outlet 24.

 Reversed flow on 1462 faces (70.1% area) of pressure-outlet 25.
    29  4.9790e-01  2.1153e-03  2.1320e-03  2.5810e-03  4.5875e-03  9.9107e-03  0:14:06  471

 turbulent viscosity limited to viscosity ratio of 1.000000e+05 in 34 cells 

 Reversed flow on 3582 faces (85.0% area) of pressure-outlet 24.

 Reversed flow on 1465 faces (70.2% area) of pressure-outlet 25.
    30  4.9666e-01  2.0477e-03  2.0654e-03  2.5096e-03  4.6145e-03  9.6811e-03  0:12:49  470

 turbulent viscosity limited to viscosity ratio of 1.000000e+05 in 62 cells 

 Reversed flow on 3582 faces (84.9% area) of pressure-outlet 24.

 Reversed flow on 1460 faces (70.0% area) of pressure-outlet 25.
    31  4.9419e-01  1.9912e-03  2.0331e-03  2.4732e-03  4.6003e-03  9.0919e-03  0:13:22  469

 turbulent viscosity limited to viscosity ratio of 1.000000e+05 in 85 cells 

 Reversed flow on 3558 faces (84.4% area) of pressure-outlet 24.

 Reversed flow on 1459 faces (69.9% area) of pressure-outlet 25.
    32  4.9587e-01  1.9666e-03  2.0184e-03  2.4672e-03  4.7752e-03  9.4191e-03  0:12:13  468

 turbulent viscosity limited to viscosity ratio of 1.000000e+05 in 142 cells 

 Reversed flow on 3555 faces (84.3% area) of pressure-outlet 24.

 Reversed flow on 1456 faces (69.8% area) of pressure-outlet 25.
    33  5.0542e-01  1.9915e-03  2.0585e-03  2.5134e-03  4.7886e-03  9.3189e-03  0:11:19  467

 turbulent viscosity limited to viscosity ratio of 1.000000e+05 in 159 cells 

 Reversed flow on 3546 faces (84.4% area) of pressure-outlet 24.

 Reversed flow on 1454 faces (69.6% area) of pressure-outlet 25.

  iter  continuity  x-velocity  y-velocity  z-velocity           k     epsilon     time/iter
    34  5.1976e-01  2.0355e-03  2.0897e-03  2.5537e-03  4.8397e-03  9.6884e-03  0:12:08  466

 turbulent viscosity limited to viscosity ratio of 1.000000e+05 in 132 cells 

 Reversed flow on 3546 faces (84.8% area) of pressure-outlet 24.

 Reversed flow on 1449 faces (69.3% area) of pressure-outlet 25.
    35  5.3365e-01  2.0724e-03  2.1174e-03  2.5860e-03  4.8248e-03  9.7495e-03  0:12:47  465

 turbulent viscosity limited to viscosity ratio of 1.000000e+05 in 61 cells 

 Reversed flow on 3494 faces (84.4% area) of pressure-outlet 24.

 Reversed flow on 1439 faces (68.9% area) of pressure-outlet 25.
    36  5.4699e-01  2.1150e-03  2.1418e-03  2.6230e-03  4.8626e-03  9.8152e-03  0:13:18  464

 turbulent viscosity limited to viscosity ratio of 1.000000e+05 in 27 cells 

 Reversed flow on 3461 faces (83.5% area) of pressure-outlet 24.

 Reversed flow on 1435 faces (68.7% area) of pressure-outlet 25.
    37  5.5957e-01  2.1547e-03  2.1684e-03  2.6644e-03  4.8557e-03  9.9652e-03  0:13:42  463

 turbulent viscosity limited to viscosity ratio of 1.000000e+05 in 18 cells 

 Reversed flow on 3430 faces (83.0% area) of pressure-outlet 24.

 Reversed flow on 1438 faces (68.8% area) of pressure-outlet 25.
    38  5.7056e-01  2.1896e-03  2.1934e-03  2.7117e-03  4.8751e-03  1.0220e-02  0:14:01  462

 turbulent viscosity limited to viscosity ratio of 1.000000e+05 in 17 cells 

 Reversed flow on 3381 faces (82.3% area) of pressure-outlet 24.

 Reversed flow on 1430 faces (68.4% area) of pressure-outlet 25.
    39  5.8158e-01  2.2246e-03  2.2129e-03  2.7660e-03  4.8743e-03  1.0295e-02  0:15:48  461

 turbulent viscosity limited to viscosity ratio of 1.000000e+05 in 16 cells 

 Reversed flow on 3357 faces (82.2% area) of pressure-outlet 24.

 Reversed flow on 1431 faces (68.5% area) of pressure-outlet 25.
    40  5.9298e-01  2.2608e-03  2.2419e-03  2.8305e-03  4.8902e-03  1.0169e-02  0:15:41  460

 turbulent viscosity limited to viscosity ratio of 1.000000e+05 in 41 cells 

 Reversed flow on 3335 faces (82.0% area) of pressure-outlet 24.

 Reversed flow on 1425 faces (68.2% area) of pressure-outlet 25.
    41  6.0300e-01  2.2976e-03  2.2673e-03  2.8975e-03  4.9515e-03  1.0410e-02  0:15:35  459

 turbulent viscosity limited to viscosity ratio of 1.000000e+05 in 51 cells 

 Reversed flow on 3317 faces (82.0% area) of pressure-outlet 24.

 Reversed flow on 1424 faces (68.1% area) of pressure-outlet 25.
    42  6.1400e-01  2.3253e-03  2.2910e-03  2.9505e-03  4.9969e-03  1.0511e-02  0:15:29  458

 turbulent viscosity limited to viscosity ratio of 1.000000e+05 in 78 cells 

 Reversed flow on 3204 faces (80.6% area) of pressure-outlet 24.

 Reversed flow on 1413 faces (67.7% area) of pressure-outlet 25.
    43  6.2423e-01  2.3448e-03  2.3038e-03  2.9788e-03  5.0203e-03  1.0726e-02  0:15:25  457

 turbulent viscosity limited to viscosity ratio of 1.000000e+05 in 96 cells 

 Reversed flow on 3145 faces (79.7% area) of pressure-outlet 24.

 Reversed flow on 1415 faces (67.8% area) of pressure-outlet 25.
    44  6.3305e-01  2.3340e-03  2.3121e-03  2.9697e-03  4.9684e-03  1.0697e-02  0:15:20  456

 turbulent viscosity limited to viscosity ratio of 1.000000e+05 in 97 cells 

 Reversed flow on 3109 faces (78.9% area) of pressure-outlet 24.

 Reversed flow on 1413 faces (67.7% area) of pressure-outlet 25.

  iter  continuity  x-velocity  y-velocity  z-velocity           k     epsilon     time/iter
    45  6.3701e-01  2.3112e-03  2.2965e-03  2.9398e-03  4.8009e-03  1.0253e-02  0:15:17  455

 turbulent viscosity limited to viscosity ratio of 1.000000e+05 in 58 cells 

 Reversed flow on 3067 faces (78.1% area) of pressure-outlet 24.

 Reversed flow on 1414 faces (67.7% area) of pressure-outlet 25.
    46  6.3280e-01  2.2421e-03  2.2361e-03  2.8478e-03  4.6767e-03  9.6716e-03  0:13:43  454

 turbulent viscosity limited to viscosity ratio of 1.000000e+05 in 64 cells 

 Reversed flow on 3055 faces (77.9% area) of pressure-outlet 24.

 Reversed flow on 1413 faces (67.6% area) of pressure-outlet 25.
    47  6.2511e-01  2.1883e-03  2.1812e-03  2.7689e-03  4.5212e-03  9.3015e-03  0:13:58  453

 turbulent viscosity limited to viscosity ratio of 1.000000e+05 in 47 cells 

 Reversed flow on 3056 faces (77.7% area) of pressure-outlet 24.

 Reversed flow on 1410 faces (67.5% area) of pressure-outlet 25.
    48  6.1713e-01  2.1382e-03  2.1381e-03  2.7022e-03  4.3717e-03  8.8260e-03  0:14:10  452

 turbulent viscosity limited to viscosity ratio of 1.000000e+05 in 27 cells 

 Reversed flow on 3056 faces (77.9% area) of pressure-outlet 24.

 Reversed flow on 1405 faces (67.2% area) of pressure-outlet 25.
    49  6.1102e-01  2.0875e-03  2.0901e-03  2.6370e-03  4.1908e-03  8.6095e-03  0:12:48  451

 turbulent viscosity limited to viscosity ratio of 1.000000e+05 in 8 cells 

 Reversed flow on 3077 faces (78.5% area) of pressure-outlet 24.

 Reversed flow on 1404 faces (67.2% area) of pressure-outlet 25.
    50  6.0622e-01  2.0371e-03  2.0441e-03  2.5774e-03  4.1000e-03  8.3069e-03  0:11:43  450

 turbulent viscosity limited to viscosity ratio of 1.000000e+05 in 1 cells 

 Reversed flow on 3105 faces (79.1% area) of pressure-outlet 24.

 Reversed flow on 1397 faces (66.8% area) of pressure-outlet 25.
    51  5.9964e-01  1.9889e-03  2.0077e-03  2.5272e-03  4.0068e-03  8.1532e-03  0:12:21  449

 Reversed flow on 3130 faces (79.8% area) of pressure-outlet 24.

 Reversed flow on 1391 faces (66.6% area) of pressure-outlet 25.
    52  5.9357e-01  1.9508e-03  1.9841e-03  2.4915e-03  3.9257e-03  8.0368e-03  0:12:51  448

 Reversed flow on 3165 faces (80.7% area) of pressure-outlet 24.

 Reversed flow on 1386 faces (66.4% area) of pressure-outlet 25.
    53  5.9127e-01  1.9304e-03  1.9678e-03  2.4732e-03  3.9037e-03  7.9907e-03  0:13:14  447

 Reversed flow on 3200 faces (81.3% area) of pressure-outlet 24.

 Reversed flow on 1376 faces (65.9% area) of pressure-outlet 25.
    54  5.9210e-01  1.9239e-03  1.9546e-03  2.4627e-03  3.8867e-03  8.0125e-03  0:13:32  446

 Reversed flow on 3262 faces (82.2% area) of pressure-outlet 24.

 Reversed flow on 1375 faces (65.8% area) of pressure-outlet 25.
    55  5.9870e-01  1.9497e-03  1.9600e-03  2.4959e-03  3.8553e-03  7.9857e-03  0:13:46  445

 Reversed flow on 3266 faces (82.0% area) of pressure-outlet 24.

 Reversed flow on 1377 faces (65.9% area) of pressure-outlet 25.

  iter  continuity  x-velocity  y-velocity  z-velocity           k     epsilon     time/iter
    56  6.0700e-01  1.9714e-03  1.9552e-03  2.5111e-03  3.7959e-03  7.7603e-03  0:15:26  444

 Reversed flow on 3236 faces (81.5% area) of pressure-outlet 24.

 Reversed flow on 1375 faces (65.8% area) of pressure-outlet 25.
    57  6.1342e-01  1.9863e-03  1.9421e-03  2.5287e-03  3.7523e-03  7.4528e-03  0:16:45  443

 Reversed flow on 3167 faces (80.3% area) of pressure-outlet 24.

 Reversed flow on 1376 faces (65.9% area) of pressure-outlet 25.
    58  6.2186e-01  2.0045e-03  1.9427e-03  2.5606e-03  3.7485e-03  7.1099e-03  0:16:19  442

 Reversed flow on 3149 faces (80.3% area) of pressure-outlet 24.

 Reversed flow on 1376 faces (65.9% area) of pressure-outlet 25.
    59  6.3154e-01  2.0212e-03  1.9625e-03  2.6126e-03  3.7834e-03  7.0363e-03  0:14:30  441

 Reversed flow on 3140 faces (80.2% area) of pressure-outlet 24.

 Reversed flow on 1376 faces (65.8% area) of pressure-outlet 25.
    60  6.4356e-01  2.0290e-03  2.0002e-03  2.6686e-03  3.8413e-03  7.1201e-03  0:14:30  440

 Reversed flow on 3123 faces (79.9% area) of pressure-outlet 24.

 Reversed flow on 1376 faces (65.8% area) of pressure-outlet 25.
    61  6.5841e-01  2.0377e-03  2.0433e-03  2.7182e-03  3.7695e-03  6.9132e-03  0:14:30  439

 Reversed flow on 3106 faces (79.6% area) of pressure-outlet 24.

 Reversed flow on 1374 faces (65.7% area) of pressure-outlet 25.
    62  6.6600e-01  2.0166e-03  2.0599e-03  2.7154e-03  3.7885e-03  6.8352e-03  0:14:30  438

 Reversed flow on 3093 faces (79.6% area) of pressure-outlet 24.

 Reversed flow on 1372 faces (65.6% area) of pressure-outlet 25.
    63  6.7342e-01  2.0223e-03  2.0845e-03  2.7308e-03  3.8577e-03  6.8151e-03  0:13:02  437

 Reversed flow on 3085 faces (79.5% area) of pressure-outlet 24.

 Reversed flow on 1374 faces (65.7% area) of pressure-outlet 25.
    64  6.8194e-01  2.0467e-03  2.1118e-03  2.7572e-03  3.9136e-03  6.9257e-03  0:13:18  436

 Reversed flow on 3043 faces (78.4% area) of pressure-outlet 24.

 Reversed flow on 1376 faces (65.9% area) of pressure-outlet 25.
    65  6.9200e-01  2.0765e-03  2.1179e-03  2.7715e-03  3.9107e-03  7.0257e-03  0:12:04  435

 Reversed flow on 3035 faces (78.1% area) of pressure-outlet 24.

 Reversed flow on 1378 faces (66.0% area) of pressure-outlet 25.
    66  6.9988e-01  2.0980e-03  2.1021e-03  2.7666e-03  3.9105e-03  7.1817e-03  0:13:58  434

 Reversed flow on 3014 faces (77.5% area) of pressure-outlet 24.

 Reversed flow on 1379 faces (66.0% area) of pressure-outlet 25.

  iter  continuity  x-velocity  y-velocity  z-velocity           k     epsilon     time/iter
    67  7.0398e-01  2.1194e-03  2.0741e-03  2.7488e-03  3.9271e-03  7.3272e-03  0:12:36  433

 Reversed flow on 2986 faces (76.8% area) of pressure-outlet 24.

 Reversed flow on 1372 faces (65.7% area) of pressure-outlet 25.
    68  7.0605e-01  2.1302e-03  2.0456e-03  2.7303e-03  3.9404e-03  7.5203e-03  0:12:56  432

 Reversed flow on 2971 faces (76.5% area) of pressure-outlet 24.

 Reversed flow on 1368 faces (65.5% area) of pressure-outlet 25.
    69  7.0680e-01  2.1347e-03  2.0207e-03  2.7011e-03  3.9341e-03  7.5595e-03  0:13:12  431

 Reversed flow on 2949 faces (75.9% area) of pressure-outlet 24.

 Reversed flow on 1372 faces (65.7% area) of pressure-outlet 25.
    70  7.0396e-01  2.1249e-03  1.9989e-03  2.6628e-03  3.9151e-03  7.5985e-03  0:11:58  430

 Reversed flow on 2946 faces (75.8% area) of pressure-outlet 24.

 Reversed flow on 1368 faces (65.5% area) of pressure-outlet 25.
    71  6.9921e-01  2.1040e-03  1.9875e-03  2.6174e-03  3.9019e-03  7.4113e-03  0:13:50  429

 turbulent viscosity limited to viscosity ratio of 1.000000e+05 in 1 cells 

 Reversed flow on 2950 faces (75.7% area) of pressure-outlet 24.

 Reversed flow on 1368 faces (65.5% area) of pressure-outlet 25.
    72  6.9495e-01  2.0727e-03  1.9904e-03  2.5768e-03  3.9012e-03  7.4021e-03  0:12:28  428

 turbulent viscosity limited to viscosity ratio of 1.000000e+05 in 3 cells 

 Reversed flow on 2980 faces (76.0% area) of pressure-outlet 24.

 Reversed flow on 1368 faces (65.5% area) of pressure-outlet 25.
    73  6.9140e-01  2.0392e-03  2.0070e-03  2.5455e-03  3.9057e-03  7.3444e-03  0:12:48  427

 turbulent viscosity limited to viscosity ratio of 1.000000e+05 in 6 cells 

 Reversed flow on 3007 faces (76.2% area) of pressure-outlet 24.

 Reversed flow on 1366 faces (65.4% area) of pressure-outlet 25.
    74  6.8914e-01  2.0047e-03  2.0296e-03  2.5260e-03  3.8999e-03  7.3454e-03  0:13:03  426

 turbulent viscosity limited to viscosity ratio of 1.000000e+05 in 2 cells 

 Reversed flow on 3012 faces (76.0% area) of pressure-outlet 24.

 Reversed flow on 1359 faces (65.1% area) of pressure-outlet 25.
    75  6.8833e-01  1.9805e-03  2.0528e-03  2.5088e-03  3.9025e-03  7.5048e-03  0:13:15  425

 Reversed flow on 3019 faces (76.0% area) of pressure-outlet 24.

 Reversed flow on 1360 faces (65.1% area) of pressure-outlet 25.
    76  6.8770e-01  1.9643e-03  2.0657e-03  2.4901e-03  3.8617e-03  7.6171e-03  0:13:24  424

 turbulent viscosity limited to viscosity ratio of 1.000000e+05 in 10 cells 

 Reversed flow on 3016 faces (76.0% area) of pressure-outlet 24.

 Reversed flow on 1358 faces (65.1% area) of pressure-outlet 25.
    77  6.8612e-01  1.9680e-03  2.0719e-03  2.4816e-03  3.8173e-03  7.7767e-03  0:13:31  423

 turbulent viscosity limited to viscosity ratio of 1.000000e+05 in 1 cells 

 Reversed flow on 3007 faces (75.8% area) of pressure-outlet 24.

 Reversed flow on 1357 faces (65.0% area) of pressure-outlet 25.

  iter  continuity  x-velocity  y-velocity  z-velocity           k     epsilon     time/iter
    78  6.8509e-01  1.9873e-03  2.0698e-03  2.4796e-03  3.7584e-03  7.7021e-03  0:12:12  422

 turbulent viscosity limited to viscosity ratio of 1.000000e+05 in 1 cells 

 Reversed flow on 2970 faces (75.1% area) of pressure-outlet 24.

 Reversed flow on 1363 faces (65.3% area) of pressure-outlet 25.
    79  6.8431e-01  2.0214e-03  2.0658e-03  2.4810e-03  3.7146e-03  7.7374e-03  0:12:32  421

 Reversed flow on 2920 faces (74.3% area) of pressure-outlet 24.

 Reversed flow on 1364 faces (65.3% area) of pressure-outlet 25.
    80  6.8465e-01  2.0613e-03  2.0581e-03  2.4862e-03  3.6808e-03  7.6349e-03  0:12:49  420

 turbulent viscosity limited to viscosity ratio of 1.000000e+05 in 1 cells 

 Reversed flow on 2889 faces (73.9% area) of pressure-outlet 24.

 Reversed flow on 1366 faces (65.4% area) of pressure-outlet 25.
    81  6.8632e-01  2.1051e-03  2.0536e-03  2.4956e-03  3.6433e-03  7.5791e-03  0:11:37  419

 turbulent viscosity limited to viscosity ratio of 1.000000e+05 in 1 cells 

 Reversed flow on 2856 faces (73.3% area) of pressure-outlet 24.

 Reversed flow on 1375 faces (65.8% area) of pressure-outlet 25.
    82  6.8941e-01  2.1402e-03  2.0473e-03  2.5031e-03  3.5890e-03  7.3982e-03  0:12:04  418

 Reversed flow on 2818 faces (72.5% area) of pressure-outlet 24.

 Reversed flow on 1380 faces (66.0% area) of pressure-outlet 25.
    83  6.9238e-01  2.1604e-03  2.0435e-03  2.4990e-03  3.5371e-03  7.2525e-03  0:12:24  417

 turbulent viscosity limited to viscosity ratio of 1.000000e+05 in 2 cells 

 Reversed flow on 2811 faces (72.4% area) of pressure-outlet 24.

 Reversed flow on 1385 faces (66.3% area) of pressure-outlet 25.
    84  6.9318e-01  2.1618e-03  2.0314e-03  2.4816e-03  3.4782e-03  7.0466e-03  0:11:17  416

 Reversed flow on 2816 faces (72.6% area) of pressure-outlet 24.

 Reversed flow on 1389 faces (66.4% area) of pressure-outlet 25.
    85  6.9165e-01  2.1348e-03  2.0213e-03  2.4540e-03  3.3904e-03  6.7908e-03  0:10:23  415

 turbulent viscosity limited to viscosity ratio of 1.000000e+05 in 1 cells 

 Reversed flow on 2816 faces (72.7% area) of pressure-outlet 24.

 Reversed flow on 1386 faces (66.2% area) of pressure-outlet 25.
    86  6.8837e-01  2.0911e-03  2.0113e-03  2.4172e-03  3.2889e-03  6.5163e-03  0:11:03  414

 Reversed flow on 2809 faces (72.6% area) of pressure-outlet 24.

 Reversed flow on 1381 faces (66.0% area) of pressure-outlet 25.
    87  6.8349e-01  2.0398e-03  2.0020e-03  2.3746e-03  3.1858e-03  6.3186e-03  0:11:34  413

 Reversed flow on 2816 faces (72.8% area) of pressure-outlet 24.

 Reversed flow on 1376 faces (65.8% area) of pressure-outlet 25.
    88  6.7880e-01  2.0002e-03  1.9945e-03  2.3353e-03  3.0989e-03  6.2857e-03  0:10:37  412

 Reversed flow on 2834 faces (73.2% area) of pressure-outlet 24.

 Reversed flow on 1372 faces (65.6% area) of pressure-outlet 25.

  iter  continuity  x-velocity  y-velocity  z-velocity           k     epsilon     time/iter
    89  6.7391e-01  1.9774e-03  1.9891e-03  2.3020e-03  3.0015e-03  5.9976e-03  0:11:12  411

 Reversed flow on 2857 faces (73.7% area) of pressure-outlet 24.

 Reversed flow on 1369 faces (65.5% area) of pressure-outlet 25.
    90  6.7085e-01  1.9594e-03  1.9844e-03  2.2694e-03  2.9023e-03  5.8663e-03  0:11:41  410

 Reversed flow on 2862 faces (73.7% area) of pressure-outlet 24.

 Reversed flow on 1374 faces (65.7% area) of pressure-outlet 25.
    91  6.7040e-01  1.9430e-03  1.9791e-03  2.2364e-03  2.8054e-03  5.6715e-03  0:12:03  409

 Reversed flow on 2853 faces (73.4% area) of pressure-outlet 24.

 Reversed flow on 1374 faces (65.7% area) of pressure-outlet 25.
    92  6.6956e-01  1.9260e-03  1.9591e-03  2.1995e-03  2.7153e-03  5.6644e-03  0:12:20  408

 Reversed flow on 2847 faces (73.2% area) of pressure-outlet 24.

 Reversed flow on 1369 faces (65.5% area) of pressure-outlet 25.
    93  6.6733e-01  1.9038e-03  1.9233e-03  2.1605e-03  2.6324e-03  5.3633e-03  0:11:12  407

 Reversed flow on 2852 faces (73.4% area) of pressure-outlet 24.

 Reversed flow on 1373 faces (65.7% area) of pressure-outlet 25.
    94  6.6258e-01  1.8818e-03  1.8803e-03  2.1189e-03  2.5777e-03  5.3013e-03  0:11:39  406

 Reversed flow on 2855 faces (73.4% area) of pressure-outlet 24.

 Reversed flow on 1374 faces (65.7% area) of pressure-outlet 25.
    95  6.5735e-01  1.8698e-03  1.8472e-03  2.0805e-03  2.5390e-03  5.1275e-03  0:13:21  405

 Reversed flow on 2863 faces (73.6% area) of pressure-outlet 24.

 Reversed flow on 1372 faces (65.7% area) of pressure-outlet 25.
    96  6.5255e-01  1.8633e-03  1.8241e-03  2.0492e-03  2.4960e-03  5.0558e-03  0:12:00  404

 Reversed flow on 2865 faces (73.6% area) of pressure-outlet 24.

 Reversed flow on 1368 faces (65.5% area) of pressure-outlet 25.
    97  6.4944e-01  1.8597e-03  1.8136e-03  2.0323e-03  2.4621e-03  4.8244e-03  0:10:55  403

 Reversed flow on 2857 faces (73.4% area) of pressure-outlet 24.

 Reversed flow on 1372 faces (65.8% area) of pressure-outlet 25.
    98  6.4880e-01  1.8586e-03  1.8229e-03  2.0234e-03  2.4559e-03  4.8354e-03  0:10:03  402

 Reversed flow on 2857 faces (73.4% area) of pressure-outlet 24.

 Reversed flow on 1366 faces (65.6% area) of pressure-outlet 25.
    99  6.5089e-01  1.8598e-03  1.8536e-03  2.0267e-03  2.4618e-03  4.7834e-03  0:09:21  401

 Reversed flow on 2857 faces (73.5% area) of pressure-outlet 24.

 Reversed flow on 1363 faces (65.4% area) of pressure-outlet 25.

  iter  continuity  x-velocity  y-velocity  z-velocity           k     epsilon     time/iter
   100  6.5668e-01  1.8713e-03  1.8957e-03  2.0441e-03  2.4991e-03  4.9279e-03  0:10:08  400

 Reversed flow on 2866 faces (73.7% area) of pressure-outlet 24.

 Reversed flow on 1363 faces (65.4% area) of pressure-outlet 25.
   101  6.6683e-01  1.8912e-03  1.9500e-03  2.0778e-03  2.5400e-03  4.9931e-03  0:10:45  399

 Reversed flow on 2855 faces (73.4% area) of pressure-outlet 24.

 Reversed flow on 1363 faces (65.4% area) of pressure-outlet 25.
   102  6.7868e-01  1.9197e-03  2.0026e-03  2.1212e-03  2.6334e-03  5.2313e-03  0:09:54  398

 turbulent viscosity limited to viscosity ratio of 1.000000e+05 in 1 cells 

 Reversed flow on 2856 faces (73.5% area) of pressure-outlet 24.

 Reversed flow on 1360 faces (65.2% area) of pressure-outlet 25.
   103  6.9395e-01  1.9573e-03  2.0532e-03  2.1709e-03  2.6987e-03  5.3428e-03  0:10:33  397

 Reversed flow on 2873 faces (73.9% area) of pressure-outlet 24.

 Reversed flow on 1359 faces (65.2% area) of pressure-outlet 25.
   104  7.0878e-01  2.0065e-03  2.0913e-03  2.2269e-03  2.8036e-03  5.7056e-03  0:11:03  396

 Reversed flow on 2883 faces (74.1% area) of pressure-outlet 24.

 Reversed flow on 1355 faces (65.0% area) of pressure-outlet 25.
   105  7.2343e-01  2.0537e-03  2.1278e-03  2.2909e-03  2.8564e-03  5.9317e-03  0:10:08  395

 Reversed flow on 2894 faces (74.5% area) of pressure-outlet 24.

 Reversed flow on 1360 faces (65.3% area) of pressure-outlet 25.
   106  7.3870e-01  2.0917e-03  2.1452e-03  2.3463e-03  2.9521e-03  6.2071e-03  0:09:24  394

 Reversed flow on 2900 faces (74.7% area) of pressure-outlet 24.

 Reversed flow on 1363 faces (65.4% area) of pressure-outlet 25.
   107  7.5026e-01  2.1202e-03  2.1677e-03  2.3962e-03  2.9870e-03  6.2940e-03  0:10:08  393

 Reversed flow on 2914 faces (75.2% area) of pressure-outlet 24.

 Reversed flow on 1360 faces (65.2% area) of pressure-outlet 25.
   108  7.5894e-01  2.1607e-03  2.1851e-03  2.4499e-03  3.0560e-03  6.4838e-03  0:10:42  392

 Reversed flow on 2937 faces (75.7% area) of pressure-outlet 24.

 Reversed flow on 1360 faces (65.2% area) of pressure-outlet 25.
   109  7.6981e-01  2.2222e-03  2.2174e-03  2.5168e-03  3.0821e-03  6.5926e-03  0:09:50  391

 Reversed flow on 2949 faces (75.9% area) of pressure-outlet 24.

 Reversed flow on 1359 faces (65.1% area) of pressure-outlet 25.
   110  7.8530e-01  2.2816e-03  2.2770e-03  2.5853e-03  3.1505e-03  6.8605e-03  0:10:27  390

 turbulent viscosity limited to viscosity ratio of 1.000000e+05 in 1 cells 

 Reversed flow on 2961 faces (76.2% area) of pressure-outlet 24.

 Reversed flow on 1363 faces (65.4% area) of pressure-outlet 25.

  iter  continuity  x-velocity  y-velocity  z-velocity           k     epsilon     time/iter
   111  7.9592e-01  2.3245e-03  2.3294e-03  2.6243e-03  3.1673e-03  6.9281e-03  0:10:56  389

 Reversed flow on 2980 faces (76.5% area) of pressure-outlet 24.

 Reversed flow on 1369 faces (65.7% area) of pressure-outlet 25.
   112  8.0220e-01  2.3294e-03  2.3624e-03  2.6225e-03  3.2323e-03  7.1437e-03  0:10:01  388

 Reversed flow on 2979 faces (76.4% area) of pressure-outlet 24.

 Reversed flow on 1365 faces (65.4% area) of pressure-outlet 25.
   113  7.9943e-01  2.3161e-03  2.4065e-03  2.6449e-03  3.2661e-03  7.2031e-03  0:11:52  387

 Reversed flow on 2964 faces (76.2% area) of pressure-outlet 24.

 Reversed flow on 1361 faces (65.2% area) of pressure-outlet 25.
   114  8.0132e-01  2.3854e-03  2.4007e-03  2.7000e-03  3.3258e-03  7.5394e-03  0:12:02  386

 Reversed flow on 2925 faces (75.4% area) of pressure-outlet 24.

 Reversed flow on 1367 faces (65.5% area) of pressure-outlet 25.
   115  8.1259e-01  2.4228e-03  2.4333e-03  2.7195e-03  3.3292e-03  7.5933e-03  0:12:10  385

 turbulent viscosity limited to viscosity ratio of 1.000000e+05 in 1 cells 

 Reversed flow on 2882 faces (74.5% area) of pressure-outlet 24.

 Reversed flow on 1372 faces (65.7% area) of pressure-outlet 25.
   116  8.2210e-01  2.3517e-03  2.3967e-03  2.6780e-03  3.3521e-03  7.6743e-03  0:12:16  384

 Reversed flow on 2846 faces (73.6% area) of pressure-outlet 24.

 Reversed flow on 1366 faces (65.5% area) of pressure-outlet 25.
   117  8.1907e-01  2.2973e-03  2.3507e-03  2.6830e-03  3.4141e-03  7.5949e-03  0:12:21  383

 Reversed flow on 2823 faces (73.1% area) of pressure-outlet 24.

 Reversed flow on 1367 faces (65.5% area) of pressure-outlet 25.
   118  8.1297e-01  2.3567e-03  2.3610e-03  2.7131e-03  3.4287e-03  7.5815e-03  0:11:07  382

 Reversed flow on 2818 faces (72.9% area) of pressure-outlet 24.

 Reversed flow on 1364 faces (65.4% area) of pressure-outlet 25.
   119  8.1950e-01  2.3953e-03  2.3850e-03  2.7041e-03  3.4154e-03  7.6346e-03  0:10:09  381

 turbulent viscosity limited to viscosity ratio of 1.000000e+05 in 1 cells 

 Reversed flow on 2801 faces (72.5% area) of pressure-outlet 24.

 Reversed flow on 1362 faces (65.3% area) of pressure-outlet 25.
   120  8.1962e-01  2.3551e-03  2.3307e-03  2.6668e-03  3.3428e-03  7.3090e-03  0:10:38  380

 Reversed flow on 2793 faces (72.3% area) of pressure-outlet 24.

 Reversed flow on 1362 faces (65.3% area) of pressure-outlet 25.
   121  8.0940e-01  2.2892e-03  2.3022e-03  2.6603e-03  3.3020e-03  7.3822e-03  0:11:00  379

 Reversed flow on 2786 faces (72.1% area) of pressure-outlet 24.

 Reversed flow on 1358 faces (65.0% area) of pressure-outlet 25.

  iter  continuity  x-velocity  y-velocity  z-velocity           k     epsilon     time/iter
   122  8.0110e-01  2.2922e-03  2.2965e-03  2.6535e-03  3.2170e-03  6.9993e-03  0:11:18  378

 Reversed flow on 2778 faces (71.8% area) of pressure-outlet 24.

 Reversed flow on 1356 faces (64.9% area) of pressure-outlet 25.
   123  7.9877e-01  2.3185e-03  2.2784e-03  2.6416e-03  3.1794e-03  7.1122e-03  0:10:16  377

 Reversed flow on 2761 faces (71.3% area) of pressure-outlet 24.

 Reversed flow on 1359 faces (65.0% area) of pressure-outlet 25.
   124  7.9649e-01  2.2844e-03  2.2589e-03  2.6143e-03  3.1078e-03  6.6615e-03  0:10:42  376

 Reversed flow on 2753 faces (71.2% area) of pressure-outlet 24.

 Reversed flow on 1363 faces (65.2% area) of pressure-outlet 25.
   125  7.9045e-01  2.2267e-03  2.2403e-03  2.5619e-03  3.1231e-03  6.8672e-03  0:09:47  375

 turbulent viscosity limited to viscosity ratio of 1.000000e+05 in 4 cells 

 Reversed flow on 2741 faces (70.8% area) of pressure-outlet 24.

 Reversed flow on 1359 faces (65.0% area) of pressure-outlet 25.
   126  7.7946e-01  2.1628e-03  2.2013e-03  2.5084e-03  3.0909e-03  6.7474e-03  0:10:18  374

 turbulent viscosity limited to viscosity ratio of 1.000000e+05 in 8 cells 

 Reversed flow on 2740 faces (70.8% area) of pressure-outlet 24.

 Reversed flow on 1355 faces (64.8% area) of pressure-outlet 25.
   127  7.6869e-01  2.1385e-03  2.1412e-03  2.4524e-03  3.1310e-03  7.0045e-03  0:10:43  373

 Reversed flow on 2740 faces (70.8% area) of pressure-outlet 24.

 Reversed flow on 1354 faces (64.7% area) of pressure-outlet 25.
   128  7.5549e-01  2.1048e-03  2.0916e-03  2.4055e-03  3.1285e-03  6.9700e-03  0:09:47  372

 turbulent viscosity limited to viscosity ratio of 1.000000e+05 in 2 cells 

 Reversed flow on 2735 faces (70.6% area) of pressure-outlet 24.

 Reversed flow on 1357 faces (64.9% area) of pressure-outlet 25.
   129  7.4486e-01  2.0911e-03  2.0485e-03  2.3589e-03  3.1447e-03  7.1534e-03  0:10:17  371

 turbulent viscosity limited to viscosity ratio of 1.000000e+05 in 8 cells 

 Reversed flow on 2730 faces (70.6% area) of pressure-outlet 24.

 Reversed flow on 1356 faces (64.8% area) of pressure-outlet 25.
   130  7.3721e-01  2.0759e-03  2.0330e-03  2.3347e-03  3.1222e-03  7.0147e-03  0:09:26  370

 turbulent viscosity limited to viscosity ratio of 1.000000e+05 in 15 cells 

 Reversed flow on 1 face (0.2% area) of pressure-outlet 22.

 Reversed flow on 2728 faces (70.6% area) of pressure-outlet 24.

 Reversed flow on 1354 faces (64.7% area) of pressure-outlet 25.
   131  7.3588e-01  2.0762e-03  2.0315e-03  2.3337e-03  3.1808e-03  7.0063e-03  0:09:59  369

 turbulent viscosity limited to viscosity ratio of 1.000000e+05 in 4 cells 

 Reversed flow on 5 faces (1.1% area) of pressure-outlet 22.

 Reversed flow on 2739 faces (71.0% area) of pressure-outlet 24.

 Reversed flow on 1353 faces (64.6% area) of pressure-outlet 25.
   132  7.3960e-01  2.0742e-03  2.0401e-03  2.3408e-03  3.1806e-03  6.8025e-03  0:10:25  368

 Reversed flow on 5 faces (1.1% area) of pressure-outlet 22.

 Reversed flow on 2747 faces (71.2% area) of pressure-outlet 24.

 Reversed flow on 1348 faces (64.4% area) of pressure-outlet 25.

  iter  continuity  x-velocity  y-velocity  z-velocity           k     epsilon     time/iter
   133  7.4477e-01  2.0734e-03  2.0362e-03  2.3433e-03  3.0999e-03  6.6082e-03  0:09:32  367

 Reversed flow on 6 faces (1.3% area) of pressure-outlet 22.

 Reversed flow on 2740 faces (71.0% area) of pressure-outlet 24.

 Reversed flow on 1343 faces (64.1% area) of pressure-outlet 25.
   134  7.4972e-01  2.0856e-03  2.0093e-03  2.3265e-03  3.0261e-03  6.3303e-03  0:08:50  366

 Reversed flow on 8 faces (1.8% area) of pressure-outlet 22.

 Reversed flow on 2734 faces (70.7% area) of pressure-outlet 24.

 Reversed flow on 1351 faces (64.5% area) of pressure-outlet 25.
   135  7.4998e-01  2.0899e-03  1.9943e-03  2.3200e-03  2.9759e-03  6.2210e-03  0:08:16  365

 Reversed flow on 9 faces (2.0% area) of pressure-outlet 22.

 Reversed flow on 2738 faces (70.7% area) of pressure-outlet 24.

 Reversed flow on 1348 faces (64.3% area) of pressure-outlet 25.
   136  7.5272e-01  2.0855e-03  1.9865e-03  2.3131e-03  2.9077e-03  6.0335e-03  0:07:48  364

 Reversed flow on 11 faces (2.4% area) of pressure-outlet 22.

 Reversed flow on 2742 faces (70.8% area) of pressure-outlet 24.

 Reversed flow on 1343 faces (64.1% area) of pressure-outlet 25.
   137  7.5283e-01  2.0637e-03  1.9853e-03  2.3003e-03  2.8258e-03  5.7970e-03  0:08:39  363

 Reversed flow on 14 faces (3.0% area) of pressure-outlet 22.

 Reversed flow on 2726 faces (70.4% area) of pressure-outlet 24.

 Reversed flow on 1337 faces (63.8% area) of pressure-outlet 25.
   138  7.5023e-01  2.0512e-03  1.9724e-03  2.2836e-03  2.7728e-03  5.7679e-03  0:09:19  362

 Reversed flow on 22 faces (4.8% area) of pressure-outlet 22.

 Reversed flow on 2734 faces (70.7% area) of pressure-outlet 24.

 Reversed flow on 1342 faces (64.2% area) of pressure-outlet 25.
   139  7.4773e-01  2.0486e-03  1.9741e-03  2.2791e-03  2.7101e-03  5.5800e-03  0:09:50  361

 Reversed flow on 32 faces (6.8% area) of pressure-outlet 22.

 Reversed flow on 2722 faces (70.4% area) of pressure-outlet 24.

 Reversed flow on 1344 faces (64.2% area) of pressure-outlet 25.
   140  7.4717e-01  2.0549e-03  1.9801e-03  2.2842e-03  2.7088e-03  5.6221e-03  0:10:15  360

 Reversed flow on 40 faces (8.3% area) of pressure-outlet 22.

 Reversed flow on 2715 faces (70.3% area) of pressure-outlet 24.

 Reversed flow on 1345 faces (64.4% area) of pressure-outlet 25.
   141  7.4939e-01  2.0643e-03  1.9949e-03  2.2938e-03  2.6975e-03  5.4629e-03  0:09:22  359

 Reversed flow on 47 faces (9.8% area) of pressure-outlet 22.

 Reversed flow on 2708 faces (70.1% area) of pressure-outlet 24.

 Reversed flow on 1343 faces (64.3% area) of pressure-outlet 25.
   142  7.5188e-01  2.0758e-03  2.0078e-03  2.3056e-03  2.7541e-03  5.6309e-03  0:09:52  358

 Reversed flow on 53 faces (11.0% area) of pressure-outlet 22.

 Reversed flow on 2709 faces (70.1% area) of pressure-outlet 24.

 Reversed flow on 1336 faces (63.9% area) of pressure-outlet 25.
   143  7.5590e-01  2.0892e-03  2.0251e-03  2.3257e-03  2.7713e-03  5.5259e-03  0:09:03  357

 Reversed flow on 62 faces (12.8% area) of pressure-outlet 22.

 Reversed flow on 2711 faces (70.2% area) of pressure-outlet 24.

 Reversed flow on 1329 faces (63.7% area) of pressure-outlet 25.

  iter  continuity  x-velocity  y-velocity  z-velocity           k     epsilon     time/iter
   144  7.6447e-01  2.1002e-03  2.0372e-03  2.3477e-03  2.8377e-03  5.6758e-03  0:10:47  356

 Reversed flow on 69 faces (14.0% area) of pressure-outlet 22.

 Reversed flow on 2701 faces (70.0% area) of pressure-outlet 24.

 Reversed flow on 1333 faces (63.9% area) of pressure-outlet 25.
   145  7.7255e-01  2.1106e-03  2.0480e-03  2.3726e-03  2.8479e-03  5.5797e-03  0:09:47  355

 Reversed flow on 75 faces (15.2% area) of pressure-outlet 22.

 Reversed flow on 2689 faces (69.7% area) of pressure-outlet 24.

 Reversed flow on 1343 faces (64.3% area) of pressure-outlet 25.
   146  7.7909e-01  2.1232e-03  2.0526e-03  2.3948e-03  2.9156e-03  5.7645e-03  0:10:10  354

 Reversed flow on 82 faces (16.3% area) of pressure-outlet 22.

 Reversed flow on 2699 faces (69.9% area) of pressure-outlet 24.

 Reversed flow on 1340 faces (64.2% area) of pressure-outlet 25.
   147  7.8462e-01  2.1390e-03  2.0609e-03  2.4159e-03  2.9147e-03  5.6649e-03  0:10:28  353

 Reversed flow on 85 faces (16.9% area) of pressure-outlet 22.

 Reversed flow on 2706 faces (70.1% area) of pressure-outlet 24.

 Reversed flow on 1336 faces (63.9% area) of pressure-outlet 25.
   148  7.8989e-01  2.1533e-03  2.0727e-03  2.4369e-03  2.9731e-03  5.8130e-03  0:09:31  352

 Reversed flow on 88 faces (17.3% area) of pressure-outlet 22.

 Reversed flow on 2711 faces (70.2% area) of pressure-outlet 24.

 Reversed flow on 1338 faces (64.0% area) of pressure-outlet 25.
   149  7.9368e-01  2.1652e-03  2.0912e-03  2.4631e-03  2.9924e-03  5.7592e-03  0:11:06  351

 Reversed flow on 90 faces (17.7% area) of pressure-outlet 22.

 Reversed flow on 2708 faces (70.0% area) of pressure-outlet 24.

 Reversed flow on 1340 faces (64.1% area) of pressure-outlet 25.
   150  7.9634e-01  2.1708e-03  2.1105e-03  2.4858e-03  3.0665e-03  5.9222e-03  0:11:12  350

 Reversed flow on 93 faces (18.2% area) of pressure-outlet 22.

 Reversed flow on 2694 faces (69.5% area) of pressure-outlet 24.

 Reversed flow on 1339 faces (64.1% area) of pressure-outlet 25.
   151  8.0009e-01  2.1693e-03  2.1325e-03  2.4961e-03  3.0974e-03  5.9132e-03  0:11:15  349

 Reversed flow on 96 faces (18.7% area) of pressure-outlet 22.

 Reversed flow on 2693 faces (69.4% area) of pressure-outlet 24.

 Reversed flow on 1336 faces (64.0% area) of pressure-outlet 25.
   152  8.0356e-01  2.1661e-03  2.1500e-03  2.5011e-03  3.1697e-03  6.0805e-03  0:11:18  348

 Reversed flow on 100 faces (19.3% area) of pressure-outlet 22.

 Reversed flow on 2692 faces (69.3% area) of pressure-outlet 24.

 Reversed flow on 1337 faces (64.1% area) of pressure-outlet 25.
   153  8.0625e-01  2.1658e-03  2.1696e-03  2.5106e-03  3.2008e-03  6.0861e-03  0:10:10  347

 Reversed flow on 101 faces (19.4% area) of pressure-outlet 22.

 Reversed flow on 2702 faces (69.5% area) of pressure-outlet 24.

 Reversed flow on 1339 faces (64.2% area) of pressure-outlet 25.
   154  8.0954e-01  2.1653e-03  2.1818e-03  2.5200e-03  3.2584e-03  6.2286e-03  0:09:16  346

 Reversed flow on 104 faces (19.9% area) of pressure-outlet 22.

 Reversed flow on 2691 faces (69.2% area) of pressure-outlet 24.

 Reversed flow on 1339 faces (64.2% area) of pressure-outlet 25.

  iter  continuity  x-velocity  y-velocity  z-velocity           k     epsilon     time/iter
   155  8.1064e-01  2.1510e-03  2.1886e-03  2.5167e-03  3.2717e-03  6.2347e-03  0:09:41  345

 turbulent viscosity limited to viscosity ratio of 1.000000e+05 in 3 cells 

 Reversed flow on 105 faces (20.0% area) of pressure-outlet 22.

 Reversed flow on 2685 faces (68.9% area) of pressure-outlet 24.

 Reversed flow on 1335 faces (64.0% area) of pressure-outlet 25.
   156  8.0918e-01  2.1364e-03  2.1812e-03  2.5075e-03  3.2933e-03  6.2580e-03  0:10:01  344

 Reversed flow on 105 faces (20.1% area) of pressure-outlet 22.

 Reversed flow on 2701 faces (69.2% area) of pressure-outlet 24.

 Reversed flow on 1333 faces (63.9% area) of pressure-outlet 25.
   157  8.0673e-01  2.1212e-03  2.1644e-03  2.4962e-03  3.2739e-03  6.2106e-03  0:10:17  343

 Reversed flow on 104 faces (19.9% area) of pressure-outlet 22.

 Reversed flow on 2716 faces (69.6% area) of pressure-outlet 24.

 Reversed flow on 1332 faces (63.9% area) of pressure-outlet 25.
   158  8.0291e-01  2.1092e-03  2.1399e-03  2.4853e-03  3.2405e-03  6.1530e-03  0:10:29  342

 Reversed flow on 103 faces (19.7% area) of pressure-outlet 22.

 Reversed flow on 2719 faces (69.7% area) of pressure-outlet 24.

 Reversed flow on 1327 faces (63.6% area) of pressure-outlet 25.
   159  7.9741e-01  2.1075e-03  2.1140e-03  2.4701e-03  3.1438e-03  6.0193e-03  0:09:30  341

 Reversed flow on 107 faces (20.3% area) of pressure-outlet 22.

 Reversed flow on 2720 faces (69.8% area) of pressure-outlet 24.

 Reversed flow on 1330 faces (63.7% area) of pressure-outlet 25.
   160  7.9161e-01  2.1130e-03  2.0939e-03  2.4576e-03  3.0605e-03  5.9102e-03  0:09:51  340

 Reversed flow on 106 faces (20.1% area) of pressure-outlet 22.

 Reversed flow on 2725 faces (70.0% area) of pressure-outlet 24.

 Reversed flow on 1329 faces (63.6% area) of pressure-outlet 25.
   161  7.8622e-01  2.1173e-03  2.0725e-03  2.4435e-03  2.9962e-03  5.7930e-03  0:10:07  339

 Reversed flow on 110 faces (20.9% area) of pressure-outlet 22.

 Reversed flow on 2718 faces (69.8% area) of pressure-outlet 24.

 Reversed flow on 1333 faces (63.8% area) of pressure-outlet 25.
   162  7.8202e-01  2.1080e-03  2.0553e-03  2.4291e-03  2.9558e-03  5.6719e-03  0:10:19  338

 Reversed flow on 111 faces (21.0% area) of pressure-outlet 22.

 Reversed flow on 2708 faces (69.5% area) of pressure-outlet 24.

 Reversed flow on 1331 faces (63.7% area) of pressure-outlet 25.
   163  7.7854e-01  2.1025e-03  2.0397e-03  2.4186e-03  2.9260e-03  5.5318e-03  0:10:29  337

 Reversed flow on 112 faces (21.2% area) of pressure-outlet 22.

 Reversed flow on 2692 faces (69.1% area) of pressure-outlet 24.

 Reversed flow on 1333 faces (63.8% area) of pressure-outlet 25.
   164  7.7700e-01  2.1121e-03  2.0331e-03  2.4145e-03  2.9465e-03  5.5160e-03  0:10:36  336

 Reversed flow on 121 faces (22.7% area) of pressure-outlet 22.

 Reversed flow on 2682 faces (68.9% area) of pressure-outlet 24.

 Reversed flow on 1327 faces (63.5% area) of pressure-outlet 25.
   165  7.7620e-01  2.1348e-03  2.0744e-03  2.4251e-03  2.9746e-03  5.5472e-03  0:10:41  335

 Reversed flow on 120 faces (22.5% area) of pressure-outlet 22.

 Reversed flow on 2673 faces (68.7% area) of pressure-outlet 24.

 Reversed flow on 1332 faces (63.7% area) of pressure-outlet 25.

  iter  continuity  x-velocity  y-velocity  z-velocity           k     epsilon     time/iter
   166  7.8202e-01  2.1925e-03  2.1147e-03  2.4538e-03  3.0335e-03  5.5962e-03  0:10:45  334

 Reversed flow on 123 faces (23.0% area) of pressure-outlet 22.

 Reversed flow on 2662 faces (68.5% area) of pressure-outlet 24.

 Reversed flow on 1341 faces (64.1% area) of pressure-outlet 25.
   167  7.9500e-01  2.2356e-03  2.1647e-03  2.4874e-03  3.0624e-03  5.6078e-03  0:10:48  333

 turbulent viscosity limited to viscosity ratio of 1.000000e+05 in 1 cells 

 Reversed flow on 124 faces (23.0% area) of pressure-outlet 22.

 Reversed flow on 2646 faces (68.0% area) of pressure-outlet 24.

 Reversed flow on 1343 faces (64.3% area) of pressure-outlet 25.
   168  8.0947e-01  2.2293e-03  2.2233e-03  2.5122e-03  3.1043e-03  5.7722e-03  0:09:43  332

 Reversed flow on 127 faces (23.4% area) of pressure-outlet 22.

 Reversed flow on 2630 faces (67.5% area) of pressure-outlet 24.

 Reversed flow on 1339 faces (64.1% area) of pressure-outlet 25.
   169  8.2050e-01  2.2693e-03  2.2351e-03  2.5165e-03  3.1444e-03  5.8542e-03  0:08:51  331

 Reversed flow on 130 faces (23.8% area) of pressure-outlet 22.

 Reversed flow on 2636 faces (67.7% area) of pressure-outlet 24.

 Reversed flow on 1336 faces (63.9% area) of pressure-outlet 25.
   170  8.2336e-01  2.3074e-03  2.2666e-03  2.5472e-03  3.1859e-03  5.8686e-03  0:08:10  330

 turbulent viscosity limited to viscosity ratio of 1.000000e+05 in 1 cells 

 Reversed flow on 134 faces (24.4% area) of pressure-outlet 22.

 Reversed flow on 2641 faces (67.8% area) of pressure-outlet 24.

 Reversed flow on 1334 faces (63.8% area) of pressure-outlet 25.
   171  8.2619e-01  2.3542e-03  2.3210e-03  2.6105e-03  3.2453e-03  6.0039e-03  0:07:36  329

 turbulent viscosity limited to viscosity ratio of 1.000000e+05 in 8 cells 

 Reversed flow on 135 faces (24.6% area) of pressure-outlet 22.

 Reversed flow on 2656 faces (68.1% area) of pressure-outlet 24.

 Reversed flow on 1333 faces (63.8% area) of pressure-outlet 25.
   172  8.3256e-01  2.4407e-03  2.2943e-03  2.6568e-03  3.3088e-03  6.2032e-03  0:08:15  328

 turbulent viscosity limited to viscosity ratio of 1.000000e+05 in 17 cells 

 Reversed flow on 138 faces (25.1% area) of pressure-outlet 22.

 Reversed flow on 2658 faces (68.2% area) of pressure-outlet 24.

 Reversed flow on 1337 faces (64.0% area) of pressure-outlet 25.
   173  8.3162e-01  2.3821e-03  2.3522e-03  2.6607e-03  3.3947e-03  6.2270e-03  0:08:46  327

 turbulent viscosity limited to viscosity ratio of 1.000000e+05 in 32 cells 

 Reversed flow on 140 faces (25.5% area) of pressure-outlet 22.

 Reversed flow on 2650 faces (68.0% area) of pressure-outlet 24.

 Reversed flow on 1337 faces (64.0% area) of pressure-outlet 25.
[...]

 Reversed flow on 59 faces (12.1% area) of pressure-outlet 22.

 Reversed flow on 2639 faces (67.8% area) of pressure-outlet 24.

 Reversed flow on 1354 faces (64.8% area) of pressure-outlet 25.
   449  6.6829e-01  1.7319e-03  1.6774e-03  2.0154e-03  2.3466e-03  3.4432e-03  0:01:22   51

 turbulent viscosity limited to viscosity ratio of 1.000000e+05 in 2 cells 

 Reversed flow on 58 faces (11.9% area) of pressure-outlet 22.

 Reversed flow on 2654 faces (68.2% area) of pressure-outlet 24.

 Reversed flow on 1349 faces (64.6% area) of pressure-outlet 25.
   450  6.7286e-01  1.7275e-03  1.6744e-03  2.0108e-03  2.3509e-03  3.4157e-03  0:01:15   50

 turbulent viscosity limited to viscosity ratio of 1.000000e+05 in 3 cells 

 Reversed flow on 56 faces (11.5% area) of pressure-outlet 22.

 Reversed flow on 2656 faces (68.3% area) of pressure-outlet 24.

 Reversed flow on 1346 faces (64.5% area) of pressure-outlet 25.
   451  6.7550e-01  1.7169e-03  1.6626e-03  1.9983e-03  2.3284e-03  3.4191e-03  0:01:08   49

 turbulent viscosity limited to viscosity ratio of 1.000000e+05 in 2 cells 

 Reversed flow on 52 faces (10.5% area) of pressure-outlet 22.

 Reversed flow on 2665 faces (68.4% area) of pressure-outlet 24.

 Reversed flow on 1337 faces (64.1% area) of pressure-outlet 25.

  iter  continuity  x-velocity  y-velocity  z-velocity           k     epsilon     time/iter
   452  6.7453e-01  1.6977e-03  1.6468e-03  1.9871e-03  2.3305e-03  3.4385e-03  0:01:13   48

 turbulent viscosity limited to viscosity ratio of 1.000000e+05 in 7 cells 

 Reversed flow on 51 faces (10.2% area) of pressure-outlet 22.

 Reversed flow on 2680 faces (68.6% area) of pressure-outlet 24.

 Reversed flow on 1331 faces (63.7% area) of pressure-outlet 25.
   453  6.7312e-01  1.6734e-03  1.6300e-03  1.9740e-03  2.3552e-03  3.4537e-03  0:01:16   47

 turbulent viscosity limited to viscosity ratio of 1.000000e+05 in 2 cells 

 Reversed flow on 50 faces (10.0% area) of pressure-outlet 22.

 Reversed flow on 2680 faces (68.6% area) of pressure-outlet 24.

 Reversed flow on 1331 faces (63.8% area) of pressure-outlet 25.
   454  6.6992e-01  1.6528e-03  1.6090e-03  1.9512e-03  2.3561e-03  3.4760e-03  0:01:09   46

 turbulent viscosity limited to viscosity ratio of 1.000000e+05 in 1 cells 

 Reversed flow on 50 faces (10.0% area) of pressure-outlet 22.

 Reversed flow on 2672 faces (68.5% area) of pressure-outlet 24.

 Reversed flow on 1328 faces (63.6% area) of pressure-outlet 25.
   455  6.6592e-01  1.6413e-03  1.5954e-03  1.9283e-03  2.3801e-03  3.5266e-03  0:01:12   45

 turbulent viscosity limited to viscosity ratio of 1.000000e+05 in 3 cells 

 Reversed flow on 52 faces (10.3% area) of pressure-outlet 22.

 Reversed flow on 2671 faces (68.5% area) of pressure-outlet 24.

 Reversed flow on 1326 faces (63.5% area) of pressure-outlet 25.
   456  6.6172e-01  1.6342e-03  1.5951e-03  1.9118e-03  2.3830e-03  3.5866e-03  0:01:05   44

 turbulent viscosity limited to viscosity ratio of 1.000000e+05 in 5 cells 

 Reversed flow on 55 faces (10.9% area) of pressure-outlet 22.

 Reversed flow on 2675 faces (68.7% area) of pressure-outlet 24.

 Reversed flow on 1325 faces (63.5% area) of pressure-outlet 25.
   457  6.5904e-01  1.6360e-03  1.6011e-03  1.9018e-03  2.4151e-03  3.6792e-03  0:01:08   43

 turbulent viscosity limited to viscosity ratio of 1.000000e+05 in 2 cells 

 Reversed flow on 56 faces (11.1% area) of pressure-outlet 22.

 Reversed flow on 2677 faces (68.8% area) of pressure-outlet 24.

 Reversed flow on 1323 faces (63.4% area) of pressure-outlet 25.
   458  6.5668e-01  1.6622e-03  1.6075e-03  1.8982e-03  2.4384e-03  3.7572e-03  0:01:01   42

 Reversed flow on 55 faces (10.9% area) of pressure-outlet 22.

 Reversed flow on 2687 faces (69.1% area) of pressure-outlet 24.

 Reversed flow on 1323 faces (63.4% area) of pressure-outlet 25.
   459  6.5572e-01  1.7003e-03  1.6312e-03  1.9093e-03  2.4584e-03  3.8235e-03  0:01:04   41

 Reversed flow on 58 faces (11.4% area) of pressure-outlet 22.

 Reversed flow on 2707 faces (69.6% area) of pressure-outlet 24.

 Reversed flow on 1326 faces (63.5% area) of pressure-outlet 25.
   460  6.5938e-01  1.7321e-03  1.6810e-03  1.9359e-03  2.4324e-03  3.8285e-03  0:00:58   40

 Reversed flow on 64 faces (12.6% area) of pressure-outlet 22.

 Reversed flow on 2721 faces (69.9% area) of pressure-outlet 24.

 Reversed flow on 1327 faces (63.6% area) of pressure-outlet 25.
   461  6.6587e-01  1.7541e-03  1.7226e-03  1.9603e-03  2.4102e-03  3.8250e-03  0:00:53   39

 Reversed flow on 68 faces (13.3% area) of pressure-outlet 22.

 Reversed flow on 2723 faces (69.9% area) of pressure-outlet 24.

 Reversed flow on 1325 faces (63.5% area) of pressure-outlet 25.
   462  6.7202e-01  1.7869e-03  1.7300e-03  1.9766e-03  2.3954e-03  3.8107e-03  0:00:57   38

 Reversed flow on 69 faces (13.5% area) of pressure-outlet 22.

 Reversed flow on 2713 faces (69.6% area) of pressure-outlet 24.

 Reversed flow on 1329 faces (63.7% area) of pressure-outlet 25.

  iter  continuity  x-velocity  y-velocity  z-velocity           k     epsilon     time/iter
   463  6.7924e-01  1.8102e-03  1.7419e-03  1.9961e-03  2.4131e-03  3.8118e-03  0:00:52   37

 Reversed flow on 70 faces (13.7% area) of pressure-outlet 22.

 Reversed flow on 2722 faces (69.8% area) of pressure-outlet 24.

 Reversed flow on 1329 faces (63.7% area) of pressure-outlet 25.
   464  6.8502e-01  1.8109e-03  1.7832e-03  2.0175e-03  2.4334e-03  3.8070e-03  0:00:55   36

 Reversed flow on 72 faces (14.1% area) of pressure-outlet 22.

 Reversed flow on 2729 faces (69.9% area) of pressure-outlet 24.

 Reversed flow on 1334 faces (64.0% area) of pressure-outlet 25.
   465  6.8960e-01  1.8077e-03  1.7887e-03  2.0298e-03  2.4181e-03  3.7752e-03  0:00:56   35

 Reversed flow on 73 faces (14.2% area) of pressure-outlet 22.

 Reversed flow on 2737 faces (70.1% area) of pressure-outlet 24.

 Reversed flow on 1335 faces (64.0% area) of pressure-outlet 25.
   466  6.9241e-01  1.7979e-03  1.7699e-03  2.0313e-03  2.3871e-03  3.7438e-03  0:01:04   34

 Reversed flow on 75 faces (14.5% area) of pressure-outlet 22.

 Reversed flow on 2736 faces (70.1% area) of pressure-outlet 24.

 Reversed flow on 1340 faces (64.2% area) of pressure-outlet 25.
   467  6.9237e-01  1.7774e-03  1.7609e-03  2.0306e-03  2.3856e-03  3.7664e-03  0:00:56   33

 Reversed flow on 78 faces (14.9% area) of pressure-outlet 22.

 Reversed flow on 2735 faces (70.1% area) of pressure-outlet 24.

 Reversed flow on 1341 faces (64.3% area) of pressure-outlet 25.
   468  6.9127e-01  1.7657e-03  1.7947e-03  2.0374e-03  2.4074e-03  3.8175e-03  0:00:57   32

 Reversed flow on 80 faces (15.3% area) of pressure-outlet 22.

 Reversed flow on 2729 faces (69.9% area) of pressure-outlet 24.

 Reversed flow on 1338 faces (64.1% area) of pressure-outlet 25.
   469  6.9181e-01  1.7736e-03  1.8300e-03  2.0541e-03  2.4177e-03  3.9119e-03  0:00:56   31

 Reversed flow on 83 faces (15.7% area) of pressure-outlet 22.

 Reversed flow on 2737 faces (70.1% area) of pressure-outlet 24.

 Reversed flow on 1335 faces (63.9% area) of pressure-outlet 25.
   470  6.9627e-01  1.7913e-03  1.8092e-03  2.0668e-03  2.4125e-03  3.9802e-03  0:00:56   30

 Reversed flow on 88 faces (16.5% area) of pressure-outlet 22.

 Reversed flow on 2737 faces (70.0% area) of pressure-outlet 24.

 Reversed flow on 1335 faces (63.9% area) of pressure-outlet 25.
   471  6.9622e-01  1.7720e-03  1.7797e-03  2.0549e-03  2.3960e-03  4.0333e-03  0:00:55   29

 Reversed flow on 90 faces (16.9% area) of pressure-outlet 22.

 Reversed flow on 2740 faces (70.1% area) of pressure-outlet 24.

 Reversed flow on 1338 faces (64.0% area) of pressure-outlet 25.
   472  6.9104e-01  1.7352e-03  1.7615e-03  2.0296e-03  2.3979e-03  4.0653e-03  0:00:48   28

 turbulent viscosity limited to viscosity ratio of 1.000000e+05 in 4 cells 

 Reversed flow on 93 faces (17.4% area) of pressure-outlet 22.

 Reversed flow on 2745 faces (70.2% area) of pressure-outlet 24.

 Reversed flow on 1339 faces (64.0% area) of pressure-outlet 25.
   473  6.8399e-01  1.7279e-03  1.7260e-03  2.0055e-03  2.4077e-03  4.0851e-03  0:00:48   27

 turbulent viscosity limited to viscosity ratio of 1.000000e+05 in 4 cells 

 Reversed flow on 93 faces (17.4% area) of pressure-outlet 22.

 Reversed flow on 2749 faces (70.3% area) of pressure-outlet 24.

 Reversed flow on 1335 faces (63.9% area) of pressure-outlet 25.

  iter  continuity  x-velocity  y-velocity  z-velocity           k     epsilon     time/iter
   474  6.7669e-01  1.7193e-03  1.6972e-03  1.9977e-03  2.3937e-03  4.0447e-03  0:00:42   26

 turbulent viscosity limited to viscosity ratio of 1.000000e+05 in 1 cells 

 Reversed flow on 94 faces (17.6% area) of pressure-outlet 22.

 Reversed flow on 2755 faces (70.5% area) of pressure-outlet 24.

 Reversed flow on 1336 faces (63.9% area) of pressure-outlet 25.
   475  6.7123e-01  1.7079e-03  1.6855e-03  1.9968e-03  2.3707e-03  3.9999e-03  0:00:42   25

 turbulent viscosity limited to viscosity ratio of 1.000000e+05 in 1 cells 

 Reversed flow on 99 faces (18.4% area) of pressure-outlet 22.

 Reversed flow on 2751 faces (70.4% area) of pressure-outlet 24.

 Reversed flow on 1333 faces (63.8% area) of pressure-outlet 25.
   476  6.6747e-01  1.6907e-03  1.6703e-03  1.9927e-03  2.3495e-03  3.9307e-03  0:00:42   24

 turbulent viscosity limited to viscosity ratio of 1.000000e+05 in 2 cells 

 Reversed flow on 99 faces (18.5% area) of pressure-outlet 22.

 Reversed flow on 2749 faces (70.4% area) of pressure-outlet 24.

 Reversed flow on 1333 faces (63.8% area) of pressure-outlet 25.
   477  6.6418e-01  1.6686e-03  1.6688e-03  1.9831e-03  2.3232e-03  3.8575e-03  0:00:41   23

 turbulent viscosity limited to viscosity ratio of 1.000000e+05 in 1 cells 

 Reversed flow on 102 faces (19.1% area) of pressure-outlet 22.

 Reversed flow on 2736 faces (70.2% area) of pressure-outlet 24.

 Reversed flow on 1343 faces (64.3% area) of pressure-outlet 25.
   478  6.6065e-01  1.6747e-03  1.6510e-03  1.9752e-03  2.2920e-03  3.7713e-03  0:00:36   22

 turbulent viscosity limited to viscosity ratio of 1.000000e+05 in 1 cells 

 Reversed flow on 103 faces (19.4% area) of pressure-outlet 22.

 Reversed flow on 2722 faces (69.8% area) of pressure-outlet 24.

 Reversed flow on 1352 faces (64.7% area) of pressure-outlet 25.
   479  6.5895e-01  1.6816e-03  1.6458e-03  1.9819e-03  2.2891e-03  3.7314e-03  0:00:32   21

 turbulent viscosity limited to viscosity ratio of 1.000000e+05 in 1 cells 

 Reversed flow on 102 faces (19.2% area) of pressure-outlet 22.

 Reversed flow on 2706 faces (69.4% area) of pressure-outlet 24.

 Reversed flow on 1354 faces (64.9% area) of pressure-outlet 25.
   480  6.5936e-01  1.6852e-03  1.6661e-03  2.0063e-03  2.2911e-03  3.6854e-03  0:00:32   20

 Reversed flow on 102 faces (19.2% area) of pressure-outlet 22.

 Reversed flow on 2690 faces (69.0% area) of pressure-outlet 24.

 Reversed flow on 1356 faces (64.9% area) of pressure-outlet 25.
   481  6.6145e-01  1.6890e-03  1.6763e-03  2.0243e-03  2.2955e-03  3.6235e-03  0:00:32   19

 Reversed flow on 105 faces (19.7% area) of pressure-outlet 22.

 Reversed flow on 2693 faces (68.9% area) of pressure-outlet 24.

 Reversed flow on 1355 faces (64.9% area) of pressure-outlet 25.
   482  6.6361e-01  1.6806e-03  1.6927e-03  2.0277e-03  2.2880e-03  3.5783e-03  0:00:32   18

 Reversed flow on 107 faces (20.1% area) of pressure-outlet 22.

 Reversed flow on 2692 faces (68.8% area) of pressure-outlet 24.

 Reversed flow on 1355 faces (64.8% area) of pressure-outlet 25.
   483  6.6524e-01  1.6725e-03  1.7192e-03  2.0220e-03  2.2912e-03  3.5933e-03  0:00:31   17

 turbulent viscosity limited to viscosity ratio of 1.000000e+05 in 7 cells 

 Reversed flow on 107 faces (20.1% area) of pressure-outlet 22.

 Reversed flow on 2690 faces (68.7% area) of pressure-outlet 24.

 Reversed flow on 1352 faces (64.7% area) of pressure-outlet 25.
   484  6.6729e-01  1.7211e-03  1.7312e-03  2.0402e-03  2.3191e-03  3.6055e-03  0:00:26   16

 turbulent viscosity limited to viscosity ratio of 1.000000e+05 in 5 cells 

 Reversed flow on 109 faces (20.5% area) of pressure-outlet 22.

 Reversed flow on 2694 faces (68.9% area) of pressure-outlet 24.

 Reversed flow on 1350 faces (64.6% area) of pressure-outlet 25.

  iter  continuity  x-velocity  y-velocity  z-velocity           k     epsilon     time/iter
   485  6.7232e-01  1.7658e-03  1.7582e-03  2.0753e-03  2.3633e-03  3.6287e-03  0:00:23   15

 turbulent viscosity limited to viscosity ratio of 1.000000e+05 in 2 cells 

 Reversed flow on 111 faces (20.8% area) of pressure-outlet 22.

 Reversed flow on 2694 faces (69.0% area) of pressure-outlet 24.

 Reversed flow on 1347 faces (64.5% area) of pressure-outlet 25.
   486  6.8299e-01  1.7663e-03  1.7942e-03  2.0961e-03  2.4024e-03  3.6276e-03  0:00:20   14

 turbulent viscosity limited to viscosity ratio of 1.000000e+05 in 6 cells 

 Reversed flow on 114 faces (21.4% area) of pressure-outlet 22.

 Reversed flow on 2708 faces (69.3% area) of pressure-outlet 24.

 Reversed flow on 1346 faces (64.5% area) of pressure-outlet 25.
   487  6.8814e-01  1.7610e-03  1.8004e-03  2.0965e-03  2.3341e-03  3.5777e-03  0:00:20   13

 Reversed flow on 114 faces (21.4% area) of pressure-outlet 22.

 Reversed flow on 2717 faces (69.5% area) of pressure-outlet 24.

 Reversed flow on 1339 faces (64.1% area) of pressure-outlet 25.
   488  6.8755e-01  1.7446e-03  1.8239e-03  2.0843e-03  2.3301e-03  3.6046e-03  0:00:17   12

 Reversed flow on 115 faces (21.6% area) of pressure-outlet 22.

 Reversed flow on 2712 faces (69.5% area) of pressure-outlet 24.

 Reversed flow on 1342 faces (64.3% area) of pressure-outlet 25.
   489  6.8672e-01  1.7771e-03  1.8319e-03  2.0832e-03  2.3133e-03  3.6439e-03  0:00:15   11

 Reversed flow on 119 faces (22.2% area) of pressure-outlet 22.

 Reversed flow on 2719 faces (69.7% area) of pressure-outlet 24.

 Reversed flow on 1330 faces (63.7% area) of pressure-outlet 25.
   490  6.8938e-01  1.8394e-03  1.8008e-03  2.0983e-03  2.2798e-03  3.6486e-03  0:00:15   10

 Reversed flow on 118 faces (22.0% area) of pressure-outlet 22.

 Reversed flow on 2720 faces (69.7% area) of pressure-outlet 24.

 Reversed flow on 1330 faces (63.7% area) of pressure-outlet 25.
   491  6.9193e-01  1.8163e-03  1.8104e-03  2.0881e-03  2.2451e-03  3.6237e-03  0:00:14    9

 Reversed flow on 120 faces (22.4% area) of pressure-outlet 22.

 Reversed flow on 2730 faces (70.0% area) of pressure-outlet 24.

 Reversed flow on 1327 faces (63.6% area) of pressure-outlet 25.
   492  6.8890e-01  1.7778e-03  1.8022e-03  2.0571e-03  2.2118e-03  3.5501e-03  0:00:12    8

 Reversed flow on 116 faces (21.5% area) of pressure-outlet 22.

 Reversed flow on 2723 faces (69.8% area) of pressure-outlet 24.

 Reversed flow on 1331 faces (63.7% area) of pressure-outlet 25.
   493  6.8233e-01  1.7771e-03  1.7903e-03  2.0220e-03  2.2178e-03  3.5092e-03  0:00:11    7

 Reversed flow on 113 faces (20.8% area) of pressure-outlet 22.

 Reversed flow on 2720 faces (69.7% area) of pressure-outlet 24.

 Reversed flow on 1333 faces (63.8% area) of pressure-outlet 25.
   494  6.7820e-01  1.8033e-03  1.8072e-03  2.0235e-03  2.2316e-03  3.4984e-03  0:00:10    6

 turbulent viscosity limited to viscosity ratio of 1.000000e+05 in 8 cells 

 Reversed flow on 111 faces (20.2% area) of pressure-outlet 22.

 Reversed flow on 2735 faces (70.1% area) of pressure-outlet 24.

 Reversed flow on 1327 faces (63.6% area) of pressure-outlet 25.
   495  6.8025e-01  1.8399e-03  1.7966e-03  2.0564e-03  2.2371e-03  3.4869e-03  0:00:08    5

 turbulent viscosity limited to viscosity ratio of 1.000000e+05 in 5 cells 

 Reversed flow on 109 faces (19.8% area) of pressure-outlet 22.

 Reversed flow on 2733 faces (70.1% area) of pressure-outlet 24.

 Reversed flow on 1333 faces (63.9% area) of pressure-outlet 25.

  iter  continuity  x-velocity  y-velocity  z-velocity           k     epsilon     time/iter
   496  6.8056e-01  1.8004e-03  1.8158e-03  2.0559e-03  2.2362e-03  3.4281e-03  0:00:06    4

 turbulent viscosity limited to viscosity ratio of 1.000000e+05 in 5 cells 

 Reversed flow on 106 faces (19.3% area) of pressure-outlet 22.

 Reversed flow on 2732 faces (70.0% area) of pressure-outlet 24.

 Reversed flow on 1336 faces (64.0% area) of pressure-outlet 25.
   497  6.7423e-01  1.7603e-03  1.7868e-03  2.0246e-03  2.2090e-03  3.3768e-03  0:00:05    3

 Reversed flow on 100 faces (18.1% area) of pressure-outlet 22.

 Reversed flow on 2728 faces (69.9% area) of pressure-outlet 24.

 Reversed flow on 1339 faces (64.1% area) of pressure-outlet 25.
   498  6.6539e-01  1.7503e-03  1.7122e-03  1.9811e-03  2.1627e-03  3.3142e-03  0:00:04    2

 Reversed flow on 102 faces (18.5% area) of pressure-outlet 22.

 Reversed flow on 2732 faces (69.9% area) of pressure-outlet 24.

 Reversed flow on 1343 faces (64.3% area) of pressure-outlet 25.
   499  6.5490e-01  1.7150e-03  1.7067e-03  1.9399e-03  2.1074e-03  3.2563e-03  0:00:02    1

 Reversed flow on 99 faces (18.0% area) of pressure-outlet 22.

 Reversed flow on 2733 faces (69.9% area) of pressure-outlet 24.

 Reversed flow on 1342 faces (64.3% area) of pressure-outlet 25.
   500  6.4782e-01  1.6890e-03  1.7184e-03  1.9323e-03  2.0984e-03  3.2033e-03  0:00:00    0

> ;/solve/set/time-step 0.01
;solve/set/data-sampling y 1 y y
;/solve/dual-time-iterate 5000 10

adjoint/                file/                   report/
define/                 mesh/                   solve/
display/                parallel/               surface/
exit                    plot/                   views/

> ; set save
;no .h5 format

adjoint/                file/                   report/
define/                 mesh/                   solve/
display/                parallel/               surface/
exit                    plot/                   views/

> /file/cff-files? n

> ;/file/autosave/root-name "Me_317"
/file/write-case-data "E:\LGF\Sim\task\0826_1\P_85\FluentData_M100_-2000_85.cas"
Writing "E:\LGF\Sim\task\0826_1\P_85\FluentData_M100_-2000_85.cas"...

    6990 mixed cells, zone 15, binary.
  565192 mixed cells, zone 16, binary.
  128494 mixed cells, zone 17, binary.
   99631 mixed cells, zone 18, binary.
  112217 mixed cells, zone 19, binary.
    6990 cell partition ids, zone 15, 100 partitions, binary.
  565192 cell partition ids, zone 16, 100 partitions, binary.
  128494 cell partition ids, zone 17, 100 partitions, binary.
   99631 cell partition ids, zone 18, 100 partitions, binary.
  112217 cell partition ids, zone 19, 100 partitions, binary.
    3768 mixed wall faces, zone  1, binary.
   34998 triangular wall faces, zone  2, binary.
    6023 triangular wall faces, zone  3, binary.
   11483 triangular wall faces, zone  4, binary.
    5640 triangular wall faces, zone  5, binary.
    2602 triangular interior faces, zone  6, binary.
     310 quadrilateral interior faces, zone  7, binary.
    2662 mixed interior faces, zone  8, binary.
    2776 mixed interior faces, zone  9, binary.
   18821 mixed interior faces, zone 10, binary.
 1189685 mixed interior faces, zone 11, binary.
  263371 mixed interior faces, zone 12, binary.
  203749 mixed interior faces, zone 13, binary.
  217848 triangular interior faces, zone 14, binary.
     637 triangular pressure-outlet faces, zone 22, binary.
     100 quadrilateral velocity-inlet faces, zone 23, binary.
    4385 mixed pressure-outlet faces, zone 24, binary.
    2646 mixed pressure-outlet faces, zone 25, binary.
    1906 triangular velocity-inlet faces, zone 26, binary.
    4293 triangular wall faces, zone 27, binary.
    4279 triangular wall faces, zone 28, binary.
  252813 nodes, binary.
  252813 node flags, binary.
Done.


Writing "E:\LGF\Sim\task\0826_1\P_85\FluentData_M100_-2000_85.dat"...

Done.



> ;/display/save-picture "E:\LGF\Sim\task\0826_1\P_85\FluentData_M100_-2000_85jpg"
/exit/c