
              Welcome to ANSYS Fluent 2020 R1

              Copyright 1987-2020 ANSYS, Inc. All Rights Reserved.
              Unauthorized use, distribution or duplication is prohibited.
              This product is subject to U.S. laws governing export and re-export.
              For full Legal Notice, see documentation.

Build Time: Dec  2 2019 14:15:26 EST  Build Id: 10114  
 
Host spawning Node 0 on machine "DESKTOP-8RUTNJQ" (win64).
WARNING: No cached password or password provided.
         use '-pass' or '-cache' to provide password
Host 0 -- ip 192.168.161.95 -- ranks 0 - 99

 host | 0
======|======
    0 : SHM

 Prot -  All Intra-node communication is: SHM


-------------------------------------------------------------------------------
ID    Hostname         Core     O.S.         PID     Vendor        
-------------------------------------------------------------------------------
n99   DESKTOP-8RUTNJQ  100/128  Windows-x64  141024  AMD EPYC 7702 
n98   DESKTOP-8RUTNJQ  99/128   Windows-x64  142296  AMD EPYC 7702 
n97   DESKTOP-8RUTNJQ  98/128   Windows-x64  133580  AMD EPYC 7702 
n96   DESKTOP-8RUTNJQ  97/128   Windows-x64  141860  AMD EPYC 7702 
n95   DESKTOP-8RUTNJQ  96/128   Windows-x64  141072  AMD EPYC 7702 
n94   DESKTOP-8RUTNJQ  95/128   Windows-x64  141788  AMD EPYC 7702 
n93   DESKTOP-8RUTNJQ  94/128   Windows-x64  142068  AMD EPYC 7702 
n92   DESKTOP-8RUTNJQ  93/128   Windows-x64  138480  AMD EPYC 7702 
n91   DESKTOP-8RUTNJQ  92/128   Windows-x64  138320  AMD EPYC 7702 
n90   DESKTOP-8RUTNJQ  91/128   Windows-x64  140800  AMD EPYC 7702 
n89   DESKTOP-8RUTNJQ  90/128   Windows-x64  140768  AMD EPYC 7702 
n88   DESKTOP-8RUTNJQ  89/128   Windows-x64  143108  AMD EPYC 7702 
n87   DESKTOP-8RUTNJQ  88/128   Windows-x64  102820  AMD EPYC 7702 
n86   DESKTOP-8RUTNJQ  87/128   Windows-x64  138984  AMD EPYC 7702 
n85   DESKTOP-8RUTNJQ  86/128   Windows-x64  141280  AMD EPYC 7702 
n84   DESKTOP-8RUTNJQ  85/128   Windows-x64  140016  AMD EPYC 7702 
n83   DESKTOP-8RUTNJQ  84/128   Windows-x64  73172   AMD EPYC 7702 
n82   DESKTOP-8RUTNJQ  83/128   Windows-x64  125152  AMD EPYC 7702 
n81   DESKTOP-8RUTNJQ  82/128   Windows-x64  142280  AMD EPYC 7702 
n80   DESKTOP-8RUTNJQ  81/128   Windows-x64  138020  AMD EPYC 7702 
-------------------------------------------------------------------------------
ID    Hostname         Core     O.S.         PID     Vendor        
-------------------------------------------------------------------------------
n79   DESKTOP-8RUTNJQ  80/128   Windows-x64  141932  AMD EPYC 7702 
n78   DESKTOP-8RUTNJQ  79/128   Windows-x64  140724  AMD EPYC 7702 
n77   DESKTOP-8RUTNJQ  78/128   Windows-x64  139480  AMD EPYC 7702 
n76   DESKTOP-8RUTNJQ  77/128   Windows-x64  137832  AMD EPYC 7702 
n75   DESKTOP-8RUTNJQ  76/128   Windows-x64  140576  AMD EPYC 7702 
n74   DESKTOP-8RUTNJQ  75/128   Windows-x64  142884  AMD EPYC 7702 
n73   DESKTOP-8RUTNJQ  74/128   Windows-x64  142184  AMD EPYC 7702 
n72   DESKTOP-8RUTNJQ  73/128   Windows-x64  140836  AMD EPYC 7702 
n71   DESKTOP-8RUTNJQ  72/128   Windows-x64  135488  AMD EPYC 7702 
n70   DESKTOP-8RUTNJQ  71/128   Windows-x64  140540  AMD EPYC 7702 
n69   DESKTOP-8RUTNJQ  70/128   Windows-x64  140644  AMD EPYC 7702 
n68   DESKTOP-8RUTNJQ  69/128   Windows-x64  140248  AMD EPYC 7702 
n67   DESKTOP-8RUTNJQ  68/128   Windows-x64  141424  AMD EPYC 7702 
n66   DESKTOP-8RUTNJQ  67/128   Windows-x64  137920  AMD EPYC 7702 
n65   DESKTOP-8RUTNJQ  66/128   Windows-x64  143104  AMD EPYC 7702 
n64   DESKTOP-8RUTNJQ  65/128   Windows-x64  140052  AMD EPYC 7702 
n63   DESKTOP-8RUTNJQ  64/128   Windows-x64  139116  AMD EPYC 7702 
n62   DESKTOP-8RUTNJQ  63/128   Windows-x64  116692  AMD EPYC 7702 
n61   DESKTOP-8RUTNJQ  62/128   Windows-x64  128988  AMD EPYC 7702 
n60   DESKTOP-8RUTNJQ  61/128   Windows-x64  133416  AMD EPYC 7702 
-------------------------------------------------------------------------------
ID    Hostname         Core     O.S.         PID     Vendor        
-------------------------------------------------------------------------------
n59   DESKTOP-8RUTNJQ  60/128   Windows-x64  137384  AMD EPYC 7702 
n58   DESKTOP-8RUTNJQ  59/128   Windows-x64  138784  AMD EPYC 7702 
n57   DESKTOP-8RUTNJQ  58/128   Windows-x64  141140  AMD EPYC 7702 
n56   DESKTOP-8RUTNJQ  57/128   Windows-x64  139556  AMD EPYC 7702 
n55   DESKTOP-8RUTNJQ  56/128   Windows-x64  134396  AMD EPYC 7702 
n54   DESKTOP-8RUTNJQ  55/128   Windows-x64  136368  AMD EPYC 7702 
n53   DESKTOP-8RUTNJQ  54/128   Windows-x64  140264  AMD EPYC 7702 
n52   DESKTOP-8RUTNJQ  53/128   Windows-x64  141344  AMD EPYC 7702 
n51   DESKTOP-8RUTNJQ  52/128   Windows-x64  141664  AMD EPYC 7702 
n50   DESKTOP-8RUTNJQ  51/128   Windows-x64  141436  AMD EPYC 7702 
n49   DESKTOP-8RUTNJQ  50/128   Windows-x64  141152  AMD EPYC 7702 
n48   DESKTOP-8RUTNJQ  49/128   Windows-x64  139844  AMD EPYC 7702 
n47   DESKTOP-8RUTNJQ  48/128   Windows-x64  109836  AMD EPYC 7702 
n46   DESKTOP-8RUTNJQ  47/128   Windows-x64  138132  AMD EPYC 7702 
n45   DESKTOP-8RUTNJQ  46/128   Windows-x64  141804  AMD EPYC 7702 
n44   DESKTOP-8RUTNJQ  45/128   Windows-x64  137696  AMD EPYC 7702 
n43   DESKTOP-8RUTNJQ  44/128   Windows-x64  139584  AMD EPYC 7702 
n42   DESKTOP-8RUTNJQ  43/128   Windows-x64  138676  AMD EPYC 7702 
n41   DESKTOP-8RUTNJQ  42/128   Windows-x64  140752  AMD EPYC 7702 
n40   DESKTOP-8RUTNJQ  41/128   Windows-x64  139996  AMD EPYC 7702 
-------------------------------------------------------------------------------
ID    Hostname         Core     O.S.         PID     Vendor        
-------------------------------------------------------------------------------
n39   DESKTOP-8RUTNJQ  40/128   Windows-x64  139612  AMD EPYC 7702 
n38   DESKTOP-8RUTNJQ  39/128   Windows-x64  138012  AMD EPYC 7702 
n37   DESKTOP-8RUTNJQ  38/128   Windows-x64  139120  AMD EPYC 7702 
n36   DESKTOP-8RUTNJQ  37/128   Windows-x64  140660  AMD EPYC 7702 
n35   DESKTOP-8RUTNJQ  36/128   Windows-x64  141040  AMD EPYC 7702 
n34   DESKTOP-8RUTNJQ  35/128   Windows-x64  138392  AMD EPYC 7702 
n33   DESKTOP-8RUTNJQ  34/128   Windows-x64  140388  AMD EPYC 7702 
n32   DESKTOP-8RUTNJQ  33/128   Windows-x64  139040  AMD EPYC 7702 
n31   DESKTOP-8RUTNJQ  32/128   Windows-x64  134596  AMD EPYC 7702 
n30   DESKTOP-8RUTNJQ  31/128   Windows-x64  140160  AMD EPYC 7702 
n29   DESKTOP-8RUTNJQ  30/128   Windows-x64  135892  AMD EPYC 7702 
n28   DESKTOP-8RUTNJQ  29/128   Windows-x64  138128  AMD EPYC 7702 
n27   DESKTOP-8RUTNJQ  28/128   Windows-x64  138544  AMD EPYC 7702 
n26   DESKTOP-8RUTNJQ  27/128   Windows-x64  136320  AMD EPYC 7702 
n25   DESKTOP-8RUTNJQ  26/128   Windows-x64  131724  AMD EPYC 7702 
n24   DESKTOP-8RUTNJQ  25/128   Windows-x64  137008  AMD EPYC 7702 
n23   DESKTOP-8RUTNJQ  24/128   Windows-x64  138732  AMD EPYC 7702 
n22   DESKTOP-8RUTNJQ  23/128   Windows-x64  138452  AMD EPYC 7702 
n21   DESKTOP-8RUTNJQ  22/128   Windows-x64  137316  AMD EPYC 7702 
n20   DESKTOP-8RUTNJQ  21/128   Windows-x64  137792  AMD EPYC 7702 
-------------------------------------------------------------------------------
ID    Hostname         Core     O.S.         PID     Vendor        
-------------------------------------------------------------------------------
n19   DESKTOP-8RUTNJQ  20/128   Windows-x64  140360  AMD EPYC 7702 
n18   DESKTOP-8RUTNJQ  19/128   Windows-x64  139808  AMD EPYC 7702 
n17   DESKTOP-8RUTNJQ  18/128   Windows-x64  137404  AMD EPYC 7702 
n16   DESKTOP-8RUTNJQ  17/128   Windows-x64  121712  AMD EPYC 7702 
n15   DESKTOP-8RUTNJQ  16/128   Windows-x64  140144  AMD EPYC 7702 
n14   DESKTOP-8RUTNJQ  15/128   Windows-x64  138352  AMD EPYC 7702 
n13   DESKTOP-8RUTNJQ  14/128   Windows-x64  137804  AMD EPYC 7702 
n12   DESKTOP-8RUTNJQ  13/128   Windows-x64  138248  AMD EPYC 7702 
n11   DESKTOP-8RUTNJQ  12/128   Windows-x64  140568  AMD EPYC 7702 
n10   DESKTOP-8RUTNJQ  11/128   Windows-x64  129488  AMD EPYC 7702 
n9    DESKTOP-8RUTNJQ  10/128   Windows-x64  140072  AMD EPYC 7702 
n8    DESKTOP-8RUTNJQ  9/128    Windows-x64  135564  AMD EPYC 7702 
n7    DESKTOP-8RUTNJQ  8/128    Windows-x64  139980  AMD EPYC 7702 
n6    DESKTOP-8RUTNJQ  7/128    Windows-x64  137984  AMD EPYC 7702 
n5    DESKTOP-8RUTNJQ  6/128    Windows-x64  133452  AMD EPYC 7702 
n4    DESKTOP-8RUTNJQ  5/128    Windows-x64  139700  AMD EPYC 7702 
n3    DESKTOP-8RUTNJQ  4/128    Windows-x64  134992  AMD EPYC 7702 
n2    DESKTOP-8RUTNJQ  3/128    Windows-x64  126536  AMD EPYC 7702 
n1    DESKTOP-8RUTNJQ  2/128    Windows-x64  132048  AMD EPYC 7702 
n0*   DESKTOP-8RUTNJQ  1/128    Windows-x64  129372  AMD EPYC 7702 
host  DESKTOP-8RUTNJQ           Windows-x64  134260  AMD EPYC 7702 

MPI Option Selected: ibmmpi
Selected system interconnect: default
-------------------------------------------------------------------------------



Cleanup script file is E:\LGF\Sim\Script\\cleanup-fluent-DESKTOP-8RUTNJQ-133684.bat

Reading journal file E:\LGF\Sim\task\0825_1\P_85\J_M100_85_-4700.jou...

> ;Read case
/file/read-case E:\LGF\Sim\basic_Mesh\Model_100.msh

DESKTOP-8RUTNJQ has other FLUENT parallel processes running.                       Process affinity not being set.

Reading "E:\LGF\Sim\basic_Mesh\Model_100.msh"...

Buffering for file scan...

  209972 nodes, binary.
   42841 nodes, binary.
    3768 mixed wall faces, zone  1, binary.
   34998 triangular wall faces, zone  2, binary.
    6023 triangular wall faces, zone  3, binary.
   11483 triangular wall faces, zone  4, binary.
    5640 triangular wall faces, zone  5, binary.
    2602 triangular interior faces, zone  6, binary.
     310 quadrilateral interior faces, zone  7, binary.
    2662 mixed interior faces, zone  8, binary.
    2776 mixed interior faces, zone  9, binary.
   18821 mixed interior faces, zone 10, binary.
 1189685 mixed interior faces, zone 11, binary.
  263371 mixed interior faces, zone 12, binary.
  203749 mixed interior faces, zone 13, binary.
  217848 triangular interior faces, zone 14, binary.
     637 triangular wall faces, zone 22, binary.
     100 quadrilateral wall faces, zone 23, binary.
    4385 mixed wall faces, zone 24, binary.
    2646 mixed wall faces, zone 25, binary.
    1906 triangular wall faces, zone 26, binary.
    4293 triangular wall faces, zone 27, binary.
    4279 triangular wall faces, zone 28, binary.
    6990 mixed cells, zone 15, binary.
  565192 mixed cells, zone 16, binary.
  128494 mixed cells, zone 17, binary.
   99631 mixed cells, zone 18, binary.
  112217 mixed cells, zone 19, binary.

Building...
     mesh
	auto partitioning mesh by Metis (fast),
	distributing mesh
		parts..................................................,
		faces..................................................,
		nodes..................................................,
		cells..................................................,
        bandwidth reduction using Reverse Cuthill-McKee: 9508/523 = 18.1797
     materials,
     interface,
     domains,
     zones,
	wall_tx_xi
	wall_xi_tx
	i2
	p2
	p1
	i1
	o1
	towparts-xi_zhui
	towparts-tc_tc
	towparts-tx_tx
	towparts-block_block
	towparts-xi_huan
	interior-towparts-xi_zhui
	interior-towparts-tc_tc
	interior-towparts-tx_tx
	interior-towparts-block_block
	interior-towparts-xi_huan
	interior-towparts-block_block-towparts-tc_tc
	interior-towparts-block_block-towparts-tx_tx
	interior-towparts-xi_huan-towparts-xi_zhui
	interior-towparts-block_block-towparts-xi_zhui
	wall-towparts-xi_zhui
	wall-towparts-tc_tc
	wall-towparts-tx_tx
	wall-towparts-block_block
	wall-towparts-xi_huan
     parallel,
Done.

> 
adjoint/                file/                   report/
define/                 mesh/                   solve/
display/                parallel/               surface/
exit                    plot/                   views/

> ; set save
;;/file/auto-save/data-frequency 2000
;;/file/auto-save/case-frequency each-time
;;/file/autosave/root-name "30du.msh.gz"

adjoint/                file/                   report/
define/                 mesh/                   solve/
display/                parallel/               surface/
exit                    plot/                   views/

> ;delete mesh interface
;/define/mesh-interface/delete contact_region

adjoint/                file/                   report/
define/                 mesh/                   solve/
display/                parallel/               surface/
exit                    plot/                   views/

> ;/define/operating-conditions/gravity/ y 0 -9.8 6

adjoint/                file/                   report/
define/                 mesh/                   solve/
display/                parallel/               surface/
exit                    plot/                   views/

> ;scale
;;/mesh/scale 0.125 0.125 0.125

adjoint/                file/                   report/
define/                 mesh/                   solve/
display/                parallel/               surface/
exit                    plot/                   views/

> ;general

adjoint/                file/                   report/
define/                 mesh/                   solve/
display/                parallel/               surface/
exit                    plot/                   views/

> /define/operating-conditions? invalid command [operating-conditions?]
y 0.0 -9.8 0.0

> 
adjoint/                file/                   report/
define/                 mesh/                   solve/
display/                parallel/               surface/
exit                    plot/                   views/

> /define/models steady? Steady solution model is already enabled.
y
invalid command [y]

> ;/define/models unsteady-1st-order? y

adjoint/                file/                   report/
define/                 mesh/                   solve/
display/                parallel/               surface/
exit                    plot/                   views/

> 
adjoint/                file/                   report/
define/                 mesh/                   solve/
display/                parallel/               surface/
exit                    plot/                   views/

> ;define viscous model

adjoint/                file/                   report/
define/                 mesh/                   solve/
display/                parallel/               surface/
exit                    plot/                   views/

> /define/models/viscous/ke-rng? y   ;;swirl?
/define/models/viscous/rng-swirl-model? yes

> 
adjoint/                file/                   report/
define/                 mesh/                   solve/
display/                parallel/               surface/
exit                    plot/                   views/

> 
adjoint/                file/                   report/
define/                 mesh/                   solve/
display/                parallel/               surface/
exit                    plot/                   views/

> ;/define/models/viscous/ke-rng-swirl-model? y
;/define/models/viscous/ke-rng/rng-swirl-model? y

adjoint/                file/                   report/
define/                 mesh/                   solve/
display/                parallel/               surface/
exit                    plot/                   views/

> 
adjoint/                file/                   report/
define/                 mesh/                   solve/
display/                parallel/               surface/
exit                    plot/                   views/

> ;/define/models/viscous/ke-realizable? y            

adjoint/                file/                   report/
define/                 mesh/                   solve/
display/                parallel/               surface/
exit                    plot/                   views/

> 
adjoint/                file/                   report/
define/                 mesh/                   solve/
display/                parallel/               surface/
exit                    plot/                   views/

> ; modify boundary-condition types

adjoint/                file/                   report/
define/                 mesh/                   solve/
display/                parallel/               surface/
exit                    plot/                   views/

> ;/define/boundary-conditions/zone-type contact_region-src wall
;/define/boundary-conditions/zone-type contact_region-trg wall
/define/boundary-conditions/zone-type i1 velocity-inlet

> /define/boundary-conditions/zone-type i2 velocity-inlet

> 
adjoint/                file/                   report/
define/                 mesh/                   solve/
display/                parallel/               surface/
exit                    plot/                   views/

> /define/boundary-conditions/zone-type o1 pressure-outlet

> /define/boundary-conditions/zone-type p1 pressure-outlet

> /define/boundary-conditions/zone-type p2 pressure-outlet

> 
adjoint/                file/                   report/
define/                 mesh/                   solve/
display/                parallel/               surface/
exit                    plot/                   views/

> ;set inlet boundary-conditions
/define/boundary-conditions/velocity-inlet (i2 i1)
i2  n n y y n 10 n 0 n n y 5 10

> /define/boundary-conditions/velocity-inlet (i2 i1)
i1  n n y y n 85 n 0 n n y 5 10

> /define/boundary-conditions/pressure-outlet (p2 p1 o1)
o1  y n -4700 n y n n y 5 10 y n n n

> /define/boundary-conditions/pressure-outlet (p2 p1 o1)
p1  y n 0 n y n n y 5 10 y n n n 

> /define/boundary-conditions/pressure-outlet (p2 p1 o1)
p2  y n 0 n y n n y 5 10 y n n n 

> 
adjoint/                file/                   report/
define/                 mesh/                   solve/
display/                parallel/               surface/
exit                    plot/                   views/

> ;;;;n y y n 0 y n 51.96 n 30 n 0 y n 1 n 1
;/define/boundary-conditions/copy-bc inlet front ()
;/define/boundary-conditions/wall lj y motion-bc-moving n n n n 11.11 1 0 0 n n 0 n 0.5

adjoint/                file/                   report/
define/                 mesh/                   solve/
display/                parallel/               surface/
exit                    plot/                   views/

> ; set solution controls
;/solve/set/p-v-coupling 21
;20: SIMPLE
;21: SIMPLEC
;22: PISO
;24: coupled
;/solve/set/under-relaxation pressure 0.5
;/solve/set/under-relaxation density 0.8
;/solve/set/under-relaxation body-force  0.8
;/solve/set/under-relaxation mom 0.5
;/solve/set/under-relaxation turb-viscosity 0.6
;/solve/set/under-relaxation k 0.6
;/solve/set/under-relaxation epsilon 0.6
;/solve/set/under-relaxation body-force 0.8 turb-viscosity 0.8 density 0.8
;/solve/set/discretization-scheme pressure 10 mom 1 k 1 epsilon 1

adjoint/                file/                   report/
define/                 mesh/                   solve/
display/                parallel/               surface/
exit                    plot/                   views/

> ;set pressure
;10:standard
;11:linear
;12:second order
;13:body force weighted
;14:presto!

adjoint/                file/                   report/
define/                 mesh/                   solve/
display/                parallel/               surface/
exit                    plot/                   views/

> ;set mom
;0:firdst order upwind
;1:second order upwind
;2:power law
;4:quick
;6:third-order muscl

adjoint/                file/                   report/
define/                 mesh/                   solve/
display/                parallel/               surface/
exit                    plot/                   views/

> ;set k
;0:firdst order upwind
;1:second order upwind
;2:power law
;4:quick
;6:third-order muscl

adjoint/                file/                   report/
define/                 mesh/                   solve/
display/                parallel/               surface/
exit                    plot/                   views/

> ;set epdst order upwind
;1:second order upwind
;2:power law
;4:silon
;0:firquick
;6:third-order muscl
;;;;;;;;;;;;;;;;;;;;;;;;;;;;;;;
;;;;;;;;;;;;;;;;;;;;;;;;;;;;;;set monitor point line surface
;;;;;;;;;;;;;;;;;;;;;;;;;;;;;;
/surface/point-surface/ cirPoint1 1.8 2 7

> /surface/point-surface/ cirPoint2 1.5 2 7

> /surface/point-surface/ cirPoint3 1 2 7

> /surface/point-surface/ cirPoint4 0 2 7

> /surface/point-surface/ cirPoint1_synYZ -1.8 2 7

> /surface/point-surface/ cirPoint2_synYZ -1.5 2 7

> /surface/point-surface/ cirPoint3_synYZ -1 2 7

> /surface/point-surface/ cirPoint1_synO -1.8 -2 7

> /surface/point-surface/ cirPoint2_synO -1.5 -2 7

> /surface/point-surface/ cirPoint3_synO -1 -2 7

> 
adjoint/                file/                   report/
define/                 mesh/                   solve/
display/                parallel/               surface/
exit                    plot/                   views/

> /surface/line-surface/ line_1 0 0 2 0 0 7

> 
adjoint/                file/                   report/
define/                 mesh/                   solve/
display/                parallel/               surface/
exit                    plot/                   views/

> /surface/line-surface/ line_2 1 2 2 1 2 7

> /surface/line-surface/ line_2_synYZ -1 2 2 -1 2 7

> 
adjoint/                file/                   report/
define/                 mesh/                   solve/
display/                parallel/               surface/
exit                    plot/                   views/

> /surface/line-surface/ line_3 1.5 2 2 1.5 2 7

> /surface/line-surface/ line_3_synYZ -1.5 2 2 -1.5 2 7

> 
adjoint/                file/                   report/
define/                 mesh/                   solve/
display/                parallel/               surface/
exit                    plot/                   views/

> 
adjoint/                file/                   report/
define/                 mesh/                   solve/
display/                parallel/               surface/
exit                    plot/                   views/

> 
adjoint/                file/                   report/
define/                 mesh/                   solve/
display/                parallel/               surface/
exit                    plot/                   views/

> 
adjoint/                file/                   report/
define/                 mesh/                   solve/
display/                parallel/               surface/
exit                    plot/                   views/

> 
adjoint/                file/                   report/
define/                 mesh/                   solve/
display/                parallel/               surface/
exit                    plot/                   views/

> /surface/plane-slice/ YuanPian_0_0_3 0 0 1 3

> /surface/plane-slice/ YuanPian_0_0_4 0 0 1 4

> /surface/plane-slice/ YuanPian_0_0_5 0 0 1 5

> /surface/plane-slice/ YuanPian_0_0_6 0 0 1 6

> /surface/plane-slice/ YuanPian_0_0_7 0 0 1 7

> 
adjoint/                file/                   report/
define/                 mesh/                   solve/
display/                parallel/               surface/
exit                    plot/                   views/

> /surface/transform-surface/ 10 ()
Center Of Rotation
 0 0 0 
Angle of Rotation
0 0 0 
Translation Distance
0 0 0 0 xiKou 

> 
adjoint/                file/                   report/
define/                 mesh/                   solve/
display/                parallel/               surface/
exit                    plot/                   views/

> 
adjoint/                file/                   report/
define/                 mesh/                   solve/
display/                parallel/               surface/
exit                    plot/                   views/

> 
adjoint/                file/                   report/
define/                 mesh/                   solve/
display/                parallel/               surface/
exit                    plot/                   views/

> 
adjoint/                file/                   report/
define/                 mesh/                   solve/
display/                parallel/               surface/
exit                    plot/                   views/

> ;/solve/monitors/surface/set-monitor miao_V_huan_2 ? velocity-magnitude miao31 miao32 miao33 miao34 miao35 miao36   n n y miao_V_huan_2 100

adjoint/                file/                   report/
define/                 mesh/                   solve/
display/                parallel/               surface/
exit                    plot/                   views/

> 
adjoint/                file/                   report/
define/                 mesh/                   solve/
display/                parallel/               surface/
exit                    plot/                   views/

> /solve/monitors/surface/set-monitor cirPoint1  "Sum" velocity-magnitude cirPoint1 () n n y E:\LGF\Sim\task\0825_1\P_85\txtData\cirPoint1_-4700.txt 100
Information: Converting monitor cirpoint1 to report definition.

> /solve/monitors/surface/set-monitor cirPoint2  "Sum" velocity-magnitude cirPoint2 () n n y E:\LGF\Sim\task\0825_1\P_85\txtData\cirPoint2_-4700.txt 100
Information: Converting monitor cirpoint2 to report definition.

> /solve/monitors/surface/set-monitor cirPoint3  "Sum" velocity-magnitude cirPoint3 () n n y E:\LGF\Sim\task\0825_1\P_85\txtData\cirPoint3_-4700.txt 100
Information: Converting monitor cirpoint3 to report definition.

> /solve/monitors/surface/set-monitor cirPoint1-2  "Sum" velocity-magnitude cirPoint1 cirPoint2 () n n y E:\LGF\Sim\task\0825_1\P_85\txtData\cirPoint1-2_-4700.txt 100
Information: Converting monitor cirpoint1-2 to report definition.

> 
adjoint/                file/                   report/
define/                 mesh/                   solve/
display/                parallel/               surface/
exit                    plot/                   views/

> /solve/monitors/surface/set-monitor line_1   "Facet Average" velocity-magnitude line_1 () n n y E:\LGF\Sim\task\0825_1\P_85\txtData\line_1_-4700.txt 100
Information: Converting monitor line_1 to report definition.

> /solve/monitors/surface/set-monitor line_2   "Facet Average" velocity-magnitude line_2 () n n y E:\LGF\Sim\task\0825_1\P_85\txtData\line_2_-4700.txt 100
Information: Converting monitor line_2 to report definition.

> 
adjoint/                file/                   report/
define/                 mesh/                   solve/
display/                parallel/               surface/
exit                    plot/                   views/

> /solve/monitors/surface/set-monitor YuanPian_0_0_5   "Facet Average" velocity-magnitude YuanPian_0_0_5 () n n y E:\LGF\Sim\task\0825_1\P_85\txtData\YuanPian_0_0_5_-4700.txt 100
Information: Converting monitor yuanpian_0_0_5 to report definition.

> 
adjoint/                file/                   report/
define/                 mesh/                   solve/
display/                parallel/               surface/
exit                    plot/                   views/

> /solve/monitors/surface/set-monitor xiKou   "Facet Average" velocity-magnitude xiKou () n n y E:\LGF\Sim\task\0825_1\P_85\txtData\xiKou_-4700.txt 100
Information: Converting monitor xikou to report definition.

> 
adjoint/                file/                   report/
define/                 mesh/                   solve/
display/                parallel/               surface/
exit                    plot/                   views/

> ;/solve/monitors/surface/set-monitor miao_V_huan_4  "Sum" velocity-magnitude miao37 () n n y E:\LGF\Sim\task\0825_1\P_85\txtData\miao_V_huan_4_-4700.txt 100

adjoint/                file/                   report/
define/                 mesh/                   solve/
display/                parallel/               surface/
exit                    plot/                   views/

> ;set monitor residuals
/solve/monitors/residual/convergence-criteria 0.000001 0.000001 0.000001 0.000001 0.000001 0.000001

> 
adjoint/                file/                   report/
define/                 mesh/                   solve/
display/                parallel/               surface/
exit                    plot/                   views/

> ;set force monitors
;compile C
;/define/user-defined/compiled-functions/compile libudf yes FandMmonitor.c "" "" 
; load C
;/define/user-defined/compiled-functions/load libudf
;;    set hook
;/define/user-defined/function-hooks/execute-at-end "force_and_moment_print::libudf" "" 

adjoint/                file/                   report/
define/                 mesh/                   solve/
display/                parallel/               surface/
exit                    plot/                   views/

> ;/solve/monitors/force/set-drag-monitor cx y che1 zxj1 zxj2 che2 zxj3 zxj4 che3 zxj5 zxj6 () n y "cx-CRH380A" n y 1 0 0
;/solve/monitors/force/set-drag-monitor cy y che1 zxj1 zxj2 che2 zxj3 zxj4 che3 zxj5 zxj6 () n y "cy-1D-30" n y 0 1 0
;/solve/monitors/force/set-drag-monitor cz y che1 zxj1 zxj2 che2 zxj3 zxj4 che3 zxj5 zxj6 () n y "cz-CRH380A" n y 0 0 1

adjoint/                file/                   report/
define/                 mesh/                   solve/
display/                parallel/               surface/
exit                    plot/                   views/

> ;/solve/monitors/force/set-moment-monitor mx y che1 zxj1 zxj2 fd1 che2 zxj3 zxj4 fd2 che3 zxj5 zxj6 () n y "mx-1D-30" n y 0 0 0 1 0 0
;/solve/monitors/force/set-moment-monitor my y che1 zxj1 zxj2 fd1 che2 zxj3 zxj4 fd2 che3 zxj5 zxj6 () n y "my-1D-30" n y 0 0 0 0 1 0
;/solve/monitors/force/set-moment-monitor mz y che1 zxj1 zxj2 fd1 che2 zxj3 zxj4 fd2 che3 zxj5 zxj6 () n y "mz-1D-30" n y 0 0 0 0 0 1

adjoint/                file/                   report/
define/                 mesh/                   solve/
display/                parallel/               surface/
exit                    plot/                   views/

> 
adjoint/                file/                   report/
define/                 mesh/                   solve/
display/                parallel/               surface/
exit                    plot/                   views/

> ;init solve set
/solve/initialize/reference-frame Current Reference Frame : Relative to Cell Zoneabsolute

> /solve/initialize/initialize-flow

> ;solve/set/time-step 0.00005
/solve/iterate 10000

  iter  continuity  x-velocity  y-velocity  z-velocity           k     epsilon     time/iter
     1  1.0000e+00  1.0570e+04  9.2552e+02  1.5581e+04  1.9464e+00  1.5782e+03  5:33:18 9999

 turbulent viscosity limited to viscosity ratio of 1.000000e+05 in 3 cells 

 Reversed flow on 4385 faces (100.0% area) of pressure-outlet 24.

 Reversed flow on 2646 faces (100.0% area) of pressure-outlet 25.
     2  5.9591e-01  1.0206e-02  8.6617e-03  2.6013e-02  2.7781e-01  2.3281e+00  4:59:56 9998

 turbulent viscosity limited to viscosity ratio of 1.000000e+05 in 11 cells 

 Reversed flow on 27 faces (4.7% area) of pressure-outlet 22.

 Reversed flow on 3527 faces (77.7% area) of pressure-outlet 24.
     3  7.6035e-01  2.5598e-02  2.2901e-02  3.0396e-02  3.5485e-01  8.6708e-01  5:06:34 9997

 Reversed flow on 27 faces (5.1% area) of pressure-outlet 22.

 Reversed flow on 1874 faces (48.9% area) of pressure-outlet 24.

 Reversed flow on 2434 faces (89.8% area) of pressure-outlet 25.
     4  5.8636e-01  1.1071e-02  1.0620e-02  1.7378e-02  1.4756e-01  5.8579e-01  5:11:53 9996

 Reversed flow on 29 faces (5.5% area) of pressure-outlet 22.

 Reversed flow on 2333 faces (60.4% area) of pressure-outlet 24.

 Reversed flow on 26 faces (0.3% area) of pressure-outlet 25.
     5  5.2110e-01  1.1544e-02  1.0638e-02  1.0484e-02  9.2478e-02  4.6542e-01  5:16:07 9995

 Reversed flow on 7 faces (1.4% area) of pressure-outlet 22.

 Reversed flow on 2952 faces (74.9% area) of pressure-outlet 24.

 Reversed flow on 575 faces (14.0% area) of pressure-outlet 25.
     6  4.4598e-01  8.5667e-03  8.0025e-03  8.6429e-03  4.8690e-02  3.0606e-01  4:46:10 9994

 Reversed flow on 3 faces (0.6% area) of pressure-outlet 22.

 Reversed flow on 2723 faces (68.7% area) of pressure-outlet 24.

 Reversed flow on 59 faces (0.7% area) of pressure-outlet 25.
     7  3.9949e-01  7.0795e-03  6.4075e-03  5.8829e-03  2.7655e-02  1.4132e-01  4:55:32 9993

 Reversed flow on 2997 faces (75.6% area) of pressure-outlet 24.

 Reversed flow on 1006 faces (30.3% area) of pressure-outlet 25.
     8  3.6449e-01  6.4314e-03  5.8077e-03  5.5597e-03  2.0453e-02  1.2652e-01  5:03:01 9992

 Reversed flow on 3064 faces (76.9% area) of pressure-outlet 24.

 Reversed flow on 998 faces (33.2% area) of pressure-outlet 25.
     9  3.3360e-01  5.5687e-03  5.0135e-03  4.5436e-03  1.6662e-02  1.0284e-01  4:35:42 9991

 turbulent viscosity limited to viscosity ratio of 1.000000e+05 in 1480 cells 

 Reversed flow on 3438 faces (85.3% area) of pressure-outlet 24.

 Reversed flow on 1098 faces (42.0% area) of pressure-outlet 25.
    10  3.1401e-01  4.9457e-03  4.5321e-03  4.1744e-03  1.2214e-02  7.4378e-02  4:47:08 9990

 turbulent viscosity limited to viscosity ratio of 1.000000e+05 in 5124 cells 

 Reversed flow on 3624 faces (89.2% area) of pressure-outlet 24.

 Reversed flow on 1058 faces (46.6% area) of pressure-outlet 25.
    11  2.8394e-01  4.1721e-03  3.9043e-03  3.7036e-03  9.0311e-03  5.5503e-02  4:56:17 9989

 Reversed flow on 3889 faces (93.3% area) of pressure-outlet 24.

 Reversed flow on 1080 faces (51.9% area) of pressure-outlet 25.

  iter  continuity  x-velocity  y-velocity  z-velocity           k     epsilon     time/iter
    12  2.5852e-01  3.7160e-03  3.5499e-03  3.3876e-03  7.5212e-03  3.5332e-02  4:30:17 9988

 Reversed flow on 4293 faces (98.0% area) of pressure-outlet 24.

 Reversed flow on 1250 faces (60.1% area) of pressure-outlet 25.
    13  2.3394e-01  3.3507e-03  3.2691e-03  2.9723e-03  6.6797e-03  2.6927e-02  4:09:30 9987

 Reversed flow on 4366 faces (99.5% area) of pressure-outlet 24.

 Reversed flow on 1357 faces (65.2% area) of pressure-outlet 25.
    14  2.2137e-01  3.2301e-03  3.1841e-03  2.8109e-03  6.9766e-03  2.4978e-02  4:26:09 9986

 Reversed flow on 4381 faces (99.9% area) of pressure-outlet 24.

 Reversed flow on 1325 faces (63.9% area) of pressure-outlet 25.
    15  2.1244e-01  3.0802e-03  3.0225e-03  2.6949e-03  7.0698e-03  2.3842e-02  4:39:28 9985

 Reversed flow on 4384 faces (100.0% area) of pressure-outlet 24.

 Reversed flow on 1172 faces (57.0% area) of pressure-outlet 25.
    16  2.0374e-01  2.9702e-03  2.9007e-03  2.6516e-03  6.9337e-03  2.3124e-02  5:23:24 9984

 Reversed flow on 4385 faces (100.0% area) of pressure-outlet 24.

 Reversed flow on 1149 faces (56.0% area) of pressure-outlet 25.
    17  1.9671e-01  2.8724e-03  2.7838e-03  2.5924e-03  6.6523e-03  2.3229e-02  5:25:14 9983

 Reversed flow on 4383 faces (99.9% area) of pressure-outlet 24.

 Reversed flow on 1201 faces (58.4% area) of pressure-outlet 25.
    18  1.8918e-01  2.8045e-03  2.6822e-03  2.5482e-03  6.1442e-03  2.2128e-02  5:26:43 9982

 Reversed flow on 4381 faces (99.9% area) of pressure-outlet 24.

 Reversed flow on 1230 faces (59.7% area) of pressure-outlet 25.
    19  1.7987e-01  2.6520e-03  2.5253e-03  2.4129e-03  5.6626e-03  2.0769e-02  4:54:37 9981

 Reversed flow on 4385 faces (100.0% area) of pressure-outlet 24.

 Reversed flow on 1242 faces (60.1% area) of pressure-outlet 25.
    20  1.7098e-01  2.5467e-03  2.4280e-03  2.3153e-03  5.2060e-03  2.0444e-02  5:02:12 9980

 Reversed flow on 4385 faces (100.0% area) of pressure-outlet 24.

 Reversed flow on 1242 faces (60.0% area) of pressure-outlet 25.
    21  1.6351e-01  2.4798e-03  2.3668e-03  2.2524e-03  4.7831e-03  1.9135e-02  5:08:16 9979

 Reversed flow on 4385 faces (100.0% area) of pressure-outlet 24.

 Reversed flow on 1256 faces (60.4% area) of pressure-outlet 25.
    22  1.5803e-01  2.4577e-03  2.3526e-03  2.2324e-03  4.4353e-03  1.7460e-02  4:39:51 9978

 Reversed flow on 4385 faces (100.0% area) of pressure-outlet 24.

 Reversed flow on 1260 faces (60.6% area) of pressure-outlet 25.

  iter  continuity  x-velocity  y-velocity  z-velocity           k     epsilon     time/iter
    23  1.5526e-01  2.4709e-03  2.3589e-03  2.2415e-03  4.2313e-03  1.6278e-02  4:50:22 9977

 Reversed flow on 4385 faces (100.0% area) of pressure-outlet 24.

 Reversed flow on 1264 faces (60.7% area) of pressure-outlet 25.
    24  1.5446e-01  2.5155e-03  2.3886e-03  2.2622e-03  4.1071e-03  1.5237e-02  4:25:31 9976

 Reversed flow on 4385 faces (100.0% area) of pressure-outlet 24.

 Reversed flow on 1294 faces (62.0% area) of pressure-outlet 25.
    25  1.5528e-01  2.5855e-03  2.4441e-03  2.3098e-03  4.0867e-03  1.4424e-02  4:05:39 9975

 Reversed flow on 4385 faces (100.0% area) of pressure-outlet 24.

 Reversed flow on 1330 faces (63.7% area) of pressure-outlet 25.
    26  1.5670e-01  2.6558e-03  2.5043e-03  2.3563e-03  4.1543e-03  1.4141e-02  3:49:45 9974

 turbulent viscosity limited to viscosity ratio of 1.000000e+05 in 5 cells 

 Reversed flow on 4385 faces (100.0% area) of pressure-outlet 24.

 Reversed flow on 1344 faces (64.4% area) of pressure-outlet 25.
    27  1.5839e-01  2.7291e-03  2.5744e-03  2.4077e-03  4.3531e-03  1.4596e-02  4:10:16 9973

 turbulent viscosity limited to viscosity ratio of 1.000000e+05 in 6 cells 

 Reversed flow on 4385 faces (100.0% area) of pressure-outlet 24.

 Reversed flow on 1371 faces (65.7% area) of pressure-outlet 25.
    28  1.6062e-01  2.7963e-03  2.6382e-03  2.4726e-03  4.7678e-03  1.5094e-02  4:26:40 9972

 turbulent viscosity limited to viscosity ratio of 1.000000e+05 in 5 cells 

 Reversed flow on 4385 faces (100.0% area) of pressure-outlet 24.

 Reversed flow on 1388 faces (66.5% area) of pressure-outlet 25.
    29  1.6331e-01  2.8828e-03  2.7053e-03  2.5462e-03  5.2814e-03  1.6303e-02  4:06:33 9971

 turbulent viscosity limited to viscosity ratio of 1.000000e+05 in 1 cells 

 Reversed flow on 4385 faces (100.0% area) of pressure-outlet 24.

 Reversed flow on 1404 faces (67.2% area) of pressure-outlet 25.
    30  1.6636e-01  2.9767e-03  2.7892e-03  2.6275e-03  5.7189e-03  1.7970e-02  4:23:41 9970

 turbulent viscosity limited to viscosity ratio of 1.000000e+05 in 7 cells 

 Reversed flow on 1 face (0.2% area) of pressure-outlet 22.

 Reversed flow on 4385 faces (100.0% area) of pressure-outlet 24.

 Reversed flow on 1418 faces (67.9% area) of pressure-outlet 25.
    31  1.7061e-01  3.0946e-03  2.8862e-03  2.7162e-03  6.4212e-03  1.9501e-02  4:04:10 9969

 turbulent viscosity limited to viscosity ratio of 1.000000e+05 in 88 cells 

 Reversed flow on 6 faces (1.0% area) of pressure-outlet 22.

 Reversed flow on 4385 faces (100.0% area) of pressure-outlet 24.

 Reversed flow on 1433 faces (68.6% area) of pressure-outlet 25.
    32  1.7525e-01  3.2351e-03  3.0078e-03  2.8403e-03  7.6772e-03  2.2327e-02  4:21:46 9968

 turbulent viscosity limited to viscosity ratio of 1.000000e+05 in 197 cells 

 Reversed flow on 11 faces (1.7% area) of pressure-outlet 22.

 Reversed flow on 4385 faces (100.0% area) of pressure-outlet 24.

 Reversed flow on 1447 faces (69.3% area) of pressure-outlet 25.
    33  1.8080e-01  3.4068e-03  3.1594e-03  3.0075e-03  1.0445e-02  2.6690e-02  4:35:50 9967

 turbulent viscosity limited to viscosity ratio of 1.000000e+05 in 289 cells 

 Reversed flow on 13 faces (1.9% area) of pressure-outlet 22.

 Reversed flow on 4385 faces (100.0% area) of pressure-outlet 24.

 Reversed flow on 1453 faces (69.6% area) of pressure-outlet 25.

  iter  continuity  x-velocity  y-velocity  z-velocity           k     epsilon     time/iter
    34  1.8724e-01  3.6123e-03  3.3239e-03  3.1928e-03  1.4616e-02  3.1299e-02  4:13:52 9966

 turbulent viscosity limited to viscosity ratio of 1.000000e+05 in 416 cells 

 Reversed flow on 17 faces (2.4% area) of pressure-outlet 22.

 Reversed flow on 4385 faces (100.0% area) of pressure-outlet 24.

 Reversed flow on 1470 faces (70.3% area) of pressure-outlet 25.
    35  1.9464e-01  3.8010e-03  3.4901e-03  3.3914e-03  1.7268e-02  3.6440e-02  3:56:17 9965

 turbulent viscosity limited to viscosity ratio of 1.000000e+05 in 1316 cells 

 Reversed flow on 14 faces (2.0% area) of pressure-outlet 22.

 Reversed flow on 4385 faces (100.0% area) of pressure-outlet 24.

 Reversed flow on 1484 faces (71.0% area) of pressure-outlet 25.
    36  2.0343e-01  3.9679e-03  3.6625e-03  3.5747e-03  1.8642e-02  4.1084e-02  4:48:39 9964

 turbulent viscosity limited to viscosity ratio of 1.000000e+05 in 3517 cells 

 Reversed flow on 12 faces (1.7% area) of pressure-outlet 22.

 Reversed flow on 4385 faces (100.0% area) of pressure-outlet 24.

 Reversed flow on 1491 faces (71.3% area) of pressure-outlet 25.
    37  2.1526e-01  4.1947e-03  3.9280e-03  3.7986e-03  1.7587e-02  4.0452e-02  4:57:19 9963

 turbulent viscosity limited to viscosity ratio of 1.000000e+05 in 3483 cells 

 Reversed flow on 9 faces (1.2% area) of pressure-outlet 22.

 Reversed flow on 4385 faces (100.0% area) of pressure-outlet 24.

 Reversed flow on 1500 faces (71.8% area) of pressure-outlet 25.
    38  2.2524e-01  4.1559e-03  3.9742e-03  3.8608e-03  1.4992e-02  3.4103e-02  5:04:15 9962

 turbulent viscosity limited to viscosity ratio of 1.000000e+05 in 2175 cells 

 Reversed flow on 11 faces (1.5% area) of pressure-outlet 22.

 Reversed flow on 4385 faces (100.0% area) of pressure-outlet 24.

 Reversed flow on 1512 faces (72.4% area) of pressure-outlet 25.
    39  2.2920e-01  3.8608e-03  3.7885e-03  3.6823e-03  1.2894e-02  2.8416e-02  4:36:34 9961

 turbulent viscosity limited to viscosity ratio of 1.000000e+05 in 639 cells 

 Reversed flow on 13 faces (1.9% area) of pressure-outlet 22.

 Reversed flow on 4385 faces (100.0% area) of pressure-outlet 24.

 Reversed flow on 1523 faces (72.8% area) of pressure-outlet 25.
    40  2.2978e-01  3.5361e-03  3.5333e-03  3.4788e-03  1.0793e-02  2.4593e-02  5:20:50 9960

 turbulent viscosity limited to viscosity ratio of 1.000000e+05 in 1086 cells 

 Reversed flow on 13 faces (1.8% area) of pressure-outlet 22.

 Reversed flow on 4385 faces (100.0% area) of pressure-outlet 24.

 Reversed flow on 1513 faces (72.3% area) of pressure-outlet 25.
    41  2.2723e-01  3.2565e-03  3.3017e-03  3.3130e-03  9.7005e-03  2.3476e-02  4:49:50 9959

 turbulent viscosity limited to viscosity ratio of 1.000000e+05 in 684 cells 

 Reversed flow on 13 faces (1.8% area) of pressure-outlet 22.

 Reversed flow on 4385 faces (100.0% area) of pressure-outlet 24.

 Reversed flow on 1513 faces (72.3% area) of pressure-outlet 25.
    42  2.2248e-01  2.9935e-03  3.0635e-03  3.0985e-03  1.0101e-02  2.4383e-02  4:58:14 9958

 turbulent viscosity limited to viscosity ratio of 1.000000e+05 in 38 cells 

 Reversed flow on 11 faces (1.5% area) of pressure-outlet 22.

 Reversed flow on 4385 faces (100.0% area) of pressure-outlet 24.

 Reversed flow on 1517 faces (72.5% area) of pressure-outlet 25.
    43  2.1725e-01  2.8397e-03  2.9045e-03  2.9463e-03  1.0249e-02  2.6225e-02  5:04:57 9957

 turbulent viscosity limited to viscosity ratio of 1.000000e+05 in 436 cells 

 Reversed flow on 8 faces (1.0% area) of pressure-outlet 22.

 Reversed flow on 4385 faces (100.0% area) of pressure-outlet 24.

 Reversed flow on 1508 faces (72.1% area) of pressure-outlet 25.
    44  2.1868e-01  2.9023e-03  2.9046e-03  2.9672e-03  9.7085e-03  2.6021e-02  5:10:18 9956

 turbulent viscosity limited to viscosity ratio of 1.000000e+05 in 473 cells 

 Reversed flow on 4385 faces (100.0% area) of pressure-outlet 24.

 Reversed flow on 1523 faces (72.8% area) of pressure-outlet 25.

  iter  continuity  x-velocity  y-velocity  z-velocity           k     epsilon     time/iter
    45  2.2362e-01  2.9864e-03  2.9122e-03  2.9838e-03  9.2547e-03  2.4324e-02  5:47:46 9955

 turbulent viscosity limited to viscosity ratio of 1.000000e+05 in 503 cells 

 Reversed flow on 4385 faces (100.0% area) of pressure-outlet 24.

 Reversed flow on 1541 faces (73.7% area) of pressure-outlet 25.
    46  2.2752e-01  2.9986e-03  2.8887e-03  2.9577e-03  8.4898e-03  2.1742e-02  5:11:22 9954

 turbulent viscosity limited to viscosity ratio of 1.000000e+05 in 376 cells 

 Reversed flow on 4385 faces (100.0% area) of pressure-outlet 24.

 Reversed flow on 1548 faces (74.0% area) of pressure-outlet 25.
    47  2.2513e-01  2.8567e-03  2.7824e-03  2.8223e-03  7.2666e-03  1.8382e-02  5:15:25 9953

 turbulent viscosity limited to viscosity ratio of 1.000000e+05 in 55 cells 

 Reversed flow on 4385 faces (100.0% area) of pressure-outlet 24.

 Reversed flow on 1555 faces (74.4% area) of pressure-outlet 25.
    48  2.2235e-01  2.7367e-03  2.6832e-03  2.7148e-03  6.2606e-03  1.6226e-02  5:18:40 9952

 Reversed flow on 4385 faces (100.0% area) of pressure-outlet 24.

 Reversed flow on 1564 faces (74.8% area) of pressure-outlet 25.
    49  2.2065e-01  2.6411e-03  2.6020e-03  2.6353e-03  5.4701e-03  1.4132e-02  4:48:04 9951

 Reversed flow on 4385 faces (100.0% area) of pressure-outlet 24.

 Reversed flow on 1578 faces (75.4% area) of pressure-outlet 25.
    50  2.1809e-01  2.5456e-03  2.5178e-03  2.5527e-03  4.8737e-03  1.2467e-02  4:23:36 9950

 Reversed flow on 4385 faces (100.0% area) of pressure-outlet 24.

 Reversed flow on 1588 faces (75.8% area) of pressure-outlet 25.
    51  2.1532e-01  2.4401e-03  2.4253e-03  2.4521e-03  4.3935e-03  1.0908e-02  4:37:11 9949

 Reversed flow on 4385 faces (100.0% area) of pressure-outlet 24.

 Reversed flow on 1597 faces (76.2% area) of pressure-outlet 25.
    52  2.1192e-01  2.3285e-03  2.3238e-03  2.3383e-03  4.0585e-03  1.0059e-02  4:48:03 9948

 turbulent viscosity limited to viscosity ratio of 1.000000e+05 in 1 cells 

 Reversed flow on 4385 faces (100.0% area) of pressure-outlet 24.

 Reversed flow on 1610 faces (76.8% area) of pressure-outlet 25.
    53  2.0822e-01  2.2198e-03  2.2154e-03  2.2249e-03  3.7780e-03  9.1753e-03  4:23:34 9947

 turbulent viscosity limited to viscosity ratio of 1.000000e+05 in 5 cells 

 Reversed flow on 4385 faces (100.0% area) of pressure-outlet 24.

 Reversed flow on 1618 faces (77.1% area) of pressure-outlet 25.
    54  2.0380e-01  2.1127e-03  2.1131e-03  2.1097e-03  3.5232e-03  8.6827e-03  4:37:09 9946

 Reversed flow on 4385 faces (100.0% area) of pressure-outlet 24.

 Reversed flow on 1630 faces (77.6% area) of pressure-outlet 25.
    55  1.9984e-01  2.0174e-03  2.0124e-03  2.0009e-03  3.2652e-03  8.1193e-03  4:14:50 9945

 Reversed flow on 4344 faces (99.5% area) of pressure-outlet 24.

 Reversed flow on 1639 faces (78.0% area) of pressure-outlet 25.

  iter  continuity  x-velocity  y-velocity  z-velocity           k     epsilon     time/iter
    56  1.9617e-01  1.9245e-03  1.9116e-03  1.8908e-03  3.0194e-03  7.8631e-03  4:30:09 9944

 Reversed flow on 4282 faces (98.2% area) of pressure-outlet 24.

 Reversed flow on 1642 faces (78.1% area) of pressure-outlet 25.
    57  1.9168e-01  1.8365e-03  1.8113e-03  1.7771e-03  2.8041e-03  7.3284e-03  4:09:14 9943

 Reversed flow on 4258 faces (97.6% area) of pressure-outlet 24.

 Reversed flow on 1647 faces (78.3% area) of pressure-outlet 25.
    58  1.8588e-01  1.7478e-03  1.7208e-03  1.6671e-03  2.6328e-03  6.9037e-03  4:25:39 9942

 Reversed flow on 4210 faces (96.6% area) of pressure-outlet 24.

 Reversed flow on 1647 faces (78.3% area) of pressure-outlet 25.
    59  1.7913e-01  1.6637e-03  1.6360e-03  1.5689e-03  2.5395e-03  6.5385e-03  4:38:46 9941

 Reversed flow on 4199 faces (96.3% area) of pressure-outlet 24.

 Reversed flow on 1648 faces (78.3% area) of pressure-outlet 25.
    60  1.7259e-01  1.5801e-03  1.5600e-03  1.4855e-03  2.4419e-03  6.3800e-03  4:16:08 9940

 Reversed flow on 4194 faces (96.2% area) of pressure-outlet 24.

 Reversed flow on 1644 faces (78.2% area) of pressure-outlet 25.
    61  1.6712e-01  1.5035e-03  1.4905e-03  1.4141e-03  2.3594e-03  6.1688e-03  3:58:01 9939

 Reversed flow on 4188 faces (96.0% area) of pressure-outlet 24.

 Reversed flow on 1630 faces (77.6% area) of pressure-outlet 25.
    62  1.6211e-01  1.4394e-03  1.4326e-03  1.3538e-03  2.2549e-03  5.9728e-03  4:16:39 9938

 Reversed flow on 4191 faces (96.0% area) of pressure-outlet 24.

 Reversed flow on 1623 faces (77.2% area) of pressure-outlet 25.
    63  1.5762e-01  1.3919e-03  1.3854e-03  1.3080e-03  2.2257e-03  5.6083e-03  3:58:25 9937

 Reversed flow on 4179 faces (95.7% area) of pressure-outlet 24.

 Reversed flow on 1617 faces (77.0% area) of pressure-outlet 25.
    64  1.5437e-01  1.3715e-03  1.3542e-03  1.2771e-03  2.2044e-03  5.5900e-03  4:16:57 9936

 Reversed flow on 4155 faces (95.1% area) of pressure-outlet 24.

 Reversed flow on 1609 faces (76.6% area) of pressure-outlet 25.
    65  1.5339e-01  1.3627e-03  1.3442e-03  1.2578e-03  2.2293e-03  5.5924e-03  4:31:47 9935

 turbulent viscosity limited to viscosity ratio of 1.000000e+05 in 1 cells 

 Reversed flow on 4122 faces (94.3% area) of pressure-outlet 24.

 Reversed flow on 1601 faces (76.2% area) of pressure-outlet 25.
    66  1.5430e-01  1.3681e-03  1.3455e-03  1.2485e-03  2.2647e-03  5.9467e-03  4:10:31 9934

 turbulent viscosity limited to viscosity ratio of 1.000000e+05 in 1 cells 

 Reversed flow on 4073 faces (93.0% area) of pressure-outlet 24.

 Reversed flow on 1597 faces (76.1% area) of pressure-outlet 25.

  iter  continuity  x-velocity  y-velocity  z-velocity           k     epsilon     time/iter
    67  1.5641e-01  1.3659e-03  1.3589e-03  1.2446e-03  2.2913e-03  5.9109e-03  4:59:43 9933

 turbulent viscosity limited to viscosity ratio of 1.000000e+05 in 2 cells 

 Reversed flow on 4047 faces (92.1% area) of pressure-outlet 24.

 Reversed flow on 1590 faces (75.8% area) of pressure-outlet 25.
    68  1.5836e-01  1.3721e-03  1.3742e-03  1.2433e-03  2.3323e-03  6.2344e-03  4:32:52 9932

 turbulent viscosity limited to viscosity ratio of 1.000000e+05 in 2 cells 

 Reversed flow on 4024 faces (91.3% area) of pressure-outlet 24.

 Reversed flow on 1590 faces (75.8% area) of pressure-outlet 25.
    69  1.5988e-01  1.3658e-03  1.3986e-03  1.2502e-03  2.3339e-03  6.3558e-03  4:11:22 9931

 Reversed flow on 4025 faces (91.0% area) of pressure-outlet 24.

 Reversed flow on 1592 faces (75.9% area) of pressure-outlet 25.
    70  1.6147e-01  1.3800e-03  1.4164e-03  1.2634e-03  2.4058e-03  7.0065e-03  4:27:16 9930

 Reversed flow on 4028 faces (90.7% area) of pressure-outlet 24.

 Reversed flow on 1591 faces (75.9% area) of pressure-outlet 25.
    71  1.6367e-01  1.3863e-03  1.4416e-03  1.2796e-03  2.3967e-03  7.0065e-03  4:06:54 9929

 Reversed flow on 4039 faces (90.9% area) of pressure-outlet 24.

 Reversed flow on 1594 faces (76.0% area) of pressure-outlet 25.
    72  1.6551e-01  1.4010e-03  1.4506e-03  1.2958e-03  2.4743e-03  7.4502e-03  3:50:35 9928

 Reversed flow on 4054 faces (91.2% area) of pressure-outlet 24.

 Reversed flow on 1595 faces (76.0% area) of pressure-outlet 25.
    73  1.6736e-01  1.3976e-03  1.4589e-03  1.3064e-03  2.3716e-03  6.9157e-03  4:10:38 9927

 Reversed flow on 4065 faces (91.4% area) of pressure-outlet 24.

 Reversed flow on 1599 faces (76.2% area) of pressure-outlet 25.
    74  1.6861e-01  1.3984e-03  1.4417e-03  1.3075e-03  2.4278e-03  7.3079e-03  4:26:40 9926

 turbulent viscosity limited to viscosity ratio of 1.000000e+05 in 1 cells 

 Reversed flow on 4084 faces (92.0% area) of pressure-outlet 24.

 Reversed flow on 1599 faces (76.3% area) of pressure-outlet 25.
    75  1.6906e-01  1.3875e-03  1.4263e-03  1.3047e-03  2.3033e-03  6.8021e-03  4:39:28 9925

 turbulent viscosity limited to viscosity ratio of 1.000000e+05 in 1 cells 

 Reversed flow on 4108 faces (92.6% area) of pressure-outlet 24.

 Reversed flow on 1602 faces (76.4% area) of pressure-outlet 25.
    76  1.6866e-01  1.3845e-03  1.4000e-03  1.2956e-03  2.4086e-03  7.3535e-03  4:49:43 9924

 turbulent viscosity limited to viscosity ratio of 1.000000e+05 in 3 cells 

 Reversed flow on 4129 faces (93.1% area) of pressure-outlet 24.

 Reversed flow on 1603 faces (76.5% area) of pressure-outlet 25.
    77  1.6762e-01  1.3798e-03  1.3838e-03  1.2860e-03  2.2795e-03  6.7960e-03  4:24:50 9923

 turbulent viscosity limited to viscosity ratio of 1.000000e+05 in 26 cells 

 Reversed flow on 4138 faces (93.4% area) of pressure-outlet 24.

 Reversed flow on 1604 faces (76.5% area) of pressure-outlet 25.

  iter  continuity  x-velocity  y-velocity  z-velocity           k     epsilon     time/iter
    78  1.6639e-01  1.3816e-03  1.3677e-03  1.2793e-03  2.3917e-03  7.0376e-03  4:37:59 9922

 turbulent viscosity limited to viscosity ratio of 1.000000e+05 in 8 cells 

 Reversed flow on 4155 faces (94.0% area) of pressure-outlet 24.

 Reversed flow on 1609 faces (76.7% area) of pressure-outlet 25.
    79  1.6466e-01  1.3880e-03  1.3622e-03  1.2754e-03  2.4069e-03  6.9023e-03  4:48:30 9921

 Reversed flow on 4162 faces (94.2% area) of pressure-outlet 24.

 Reversed flow on 1607 faces (76.7% area) of pressure-outlet 25.
    80  1.6293e-01  1.3996e-03  1.3686e-03  1.2747e-03  2.4529e-03  7.2513e-03  4:23:51 9920

 Reversed flow on 4176 faces (94.6% area) of pressure-outlet 24.

 Reversed flow on 1605 faces (76.6% area) of pressure-outlet 25.
    81  1.6133e-01  1.4229e-03  1.3760e-03  1.2776e-03  2.3183e-03  6.8382e-03  4:37:11 9919

 Reversed flow on 4189 faces (95.0% area) of pressure-outlet 24.

 Reversed flow on 1604 faces (76.5% area) of pressure-outlet 25.
    82  1.6097e-01  1.4375e-03  1.3906e-03  1.2881e-03  2.3143e-03  6.4325e-03  4:14:47 9918

 Reversed flow on 4206 faces (95.4% area) of pressure-outlet 24.

 Reversed flow on 1603 faces (76.5% area) of pressure-outlet 25.
    83  1.6070e-01  1.4740e-03  1.3956e-03  1.3028e-03  2.2991e-03  6.4672e-03  4:29:55 9917

 Reversed flow on 4215 faces (95.7% area) of pressure-outlet 24.

 Reversed flow on 1601 faces (76.4% area) of pressure-outlet 25.
    84  1.6171e-01  1.5019e-03  1.4159e-03  1.3187e-03  2.2905e-03  6.3304e-03  4:42:01 9916

 Reversed flow on 4220 faces (95.8% area) of pressure-outlet 24.

 Reversed flow on 1593 faces (76.0% area) of pressure-outlet 25.
    85  1.6293e-01  1.5402e-03  1.4204e-03  1.3278e-03  2.2611e-03  6.1865e-03  4:51:42 9915

 Reversed flow on 4216 faces (95.8% area) of pressure-outlet 24.

 Reversed flow on 1591 faces (75.9% area) of pressure-outlet 25.
    86  1.6388e-01  1.5465e-03  1.4408e-03  1.3357e-03  2.1537e-03  5.5507e-03  4:26:23 9914

 Reversed flow on 4222 faces (95.9% area) of pressure-outlet 24.

 Reversed flow on 1588 faces (75.8% area) of pressure-outlet 25.
    87  1.6415e-01  1.5541e-03  1.4393e-03  1.3320e-03  2.1655e-03  5.7895e-03  4:39:10 9913

 turbulent viscosity limited to viscosity ratio of 1.000000e+05 in 1 cells 

 Reversed flow on 4225 faces (96.0% area) of pressure-outlet 24.

 Reversed flow on 1587 faces (75.7% area) of pressure-outlet 25.
    88  1.6353e-01  1.5285e-03  1.4492e-03  1.3223e-03  2.0835e-03  5.6371e-03  4:49:24 9912

 turbulent viscosity limited to viscosity ratio of 1.000000e+05 in 5 cells 

 Reversed flow on 4222 faces (96.0% area) of pressure-outlet 24.

 Reversed flow on 1587 faces (75.7% area) of pressure-outlet 25.

  iter  continuity  x-velocity  y-velocity  z-velocity           k     epsilon     time/iter
    89  1.6254e-01  1.5167e-03  1.4422e-03  1.3133e-03  2.1475e-03  6.2599e-03  4:24:32 9911

 turbulent viscosity limited to viscosity ratio of 1.000000e+05 in 16 cells 

 Reversed flow on 4242 faces (96.5% area) of pressure-outlet 24.

 Reversed flow on 1585 faces (75.7% area) of pressure-outlet 25.
    90  1.6085e-01  1.4851e-03  1.4430e-03  1.3075e-03  2.0606e-03  5.9054e-03  4:37:40 9910

 turbulent viscosity limited to viscosity ratio of 1.000000e+05 in 6 cells 

 Reversed flow on 4259 faces (96.9% area) of pressure-outlet 24.

 Reversed flow on 1583 faces (75.6% area) of pressure-outlet 25.
    91  1.5886e-01  1.4622e-03  1.4321e-03  1.3014e-03  2.1489e-03  5.8895e-03  4:15:08 9909

 turbulent viscosity limited to viscosity ratio of 1.000000e+05 in 11 cells 

 Reversed flow on 4278 faces (97.4% area) of pressure-outlet 24.

 Reversed flow on 1582 faces (75.5% area) of pressure-outlet 25.
    92  1.5641e-01  1.4317e-03  1.4302e-03  1.2930e-03  1.9797e-03  5.5366e-03  3:57:07 9908

 turbulent viscosity limited to viscosity ratio of 1.000000e+05 in 20 cells 

 Reversed flow on 4285 faces (97.7% area) of pressure-outlet 24.

 Reversed flow on 1581 faces (75.5% area) of pressure-outlet 25.
    93  1.5395e-01  1.4118e-03  1.4192e-03  1.2879e-03  2.0192e-03  5.8247e-03  4:15:43 9907

 Reversed flow on 4302 faces (98.2% area) of pressure-outlet 24.

 Reversed flow on 1582 faces (75.5% area) of pressure-outlet 25.
    94  1.5144e-01  1.3886e-03  1.4100e-03  1.2837e-03  2.0071e-03  5.9115e-03  3:57:35 9906

 Reversed flow on 4333 faces (98.9% area) of pressure-outlet 24.

 Reversed flow on 1583 faces (75.5% area) of pressure-outlet 25.
    95  1.4926e-01  1.3702e-03  1.3940e-03  1.2793e-03  2.0467e-03  5.8522e-03  4:16:05 9905

 Reversed flow on 4356 faces (99.4% area) of pressure-outlet 24.

 Reversed flow on 1583 faces (75.5% area) of pressure-outlet 25.
    96  1.4776e-01  1.3620e-03  1.3793e-03  1.2804e-03  2.0360e-03  5.8723e-03  4:30:52 9904

 turbulent viscosity limited to viscosity ratio of 1.000000e+05 in 1 cells 

 Reversed flow on 4377 faces (99.9% area) of pressure-outlet 24.

 Reversed flow on 1584 faces (75.6% area) of pressure-outlet 25.
    97  1.4728e-01  1.3598e-03  1.3690e-03  1.2859e-03  2.1053e-03  6.1929e-03  4:42:41 9903

 Reversed flow on 4372 faces (99.7% area) of pressure-outlet 24.

 Reversed flow on 1585 faces (75.6% area) of pressure-outlet 25.
    98  1.4744e-01  1.3581e-03  1.3570e-03  1.2896e-03  2.1528e-03  6.4899e-03  4:52:09 9902

 turbulent viscosity limited to viscosity ratio of 1.000000e+05 in 1 cells 

 Reversed flow on 4356 faces (99.3% area) of pressure-outlet 24.

 Reversed flow on 1584 faces (75.6% area) of pressure-outlet 25.
    99  1.4822e-01  1.3472e-03  1.3498e-03  1.2950e-03  2.1503e-03  6.0997e-03  4:59:42 9901

 Reversed flow on 4332 faces (98.6% area) of pressure-outlet 24.

 Reversed flow on 1581 faces (75.5% area) of pressure-outlet 25.

  iter  continuity  x-velocity  y-velocity  z-velocity           k     epsilon     time/iter
   100  1.4915e-01  1.3489e-03  1.3349e-03  1.2957e-03  2.1845e-03  6.2976e-03  4:32:44 9900

 Reversed flow on 4313 faces (98.1% area) of pressure-outlet 24.

 Reversed flow on 1582 faces (75.5% area) of pressure-outlet 25.
   101  1.5060e-01  1.3466e-03  1.3301e-03  1.2983e-03  2.2020e-03  6.3156e-03  6:56:09 9899

 turbulent viscosity limited to viscosity ratio of 1.000000e+05 in 3 cells 

 Reversed flow on 4294 faces (97.6% area) of pressure-outlet 24.

 Reversed flow on 1583 faces (75.5% area) of pressure-outlet 25.
   102  1.5262e-01  1.3467e-03  1.3205e-03  1.2982e-03  2.2719e-03  6.6919e-03  6:38:52 9898

 turbulent viscosity limited to viscosity ratio of 1.000000e+05 in 1 cells 

 Reversed flow on 4298 faces (97.7% area) of pressure-outlet 24.

 Reversed flow on 1582 faces (75.5% area) of pressure-outlet 25.
   103  1.5530e-01  1.3421e-03  1.3218e-03  1.2998e-03  2.2484e-03  6.3985e-03  5:52:03 9897

 turbulent viscosity limited to viscosity ratio of 1.000000e+05 in 2 cells 

 Reversed flow on 4298 faces (97.8% area) of pressure-outlet 24.

 Reversed flow on 1584 faces (75.6% area) of pressure-outlet 25.
   104  1.5795e-01  1.3479e-03  1.3201e-03  1.3018e-03  2.3078e-03  6.6106e-03  5:47:35 9896

 turbulent viscosity limited to viscosity ratio of 1.000000e+05 in 6 cells 

 Reversed flow on 4304 faces (97.9% area) of pressure-outlet 24.

 Reversed flow on 1586 faces (75.6% area) of pressure-outlet 25.
   105  1.6141e-01  1.3568e-03  1.3341e-03  1.3086e-03  2.3132e-03  6.4367e-03  5:11:02 9895

 turbulent viscosity limited to viscosity ratio of 1.000000e+05 in 4 cells 

 Reversed flow on 4309 faces (98.0% area) of pressure-outlet 24.

 Reversed flow on 1582 faces (75.5% area) of pressure-outlet 25.
   106  1.6452e-01  1.3775e-03  1.3456e-03  1.3224e-03  2.3831e-03  6.8211e-03  5:14:45 9894

 turbulent viscosity limited to viscosity ratio of 1.000000e+05 in 5 cells 

 Reversed flow on 4335 faces (98.7% area) of pressure-outlet 24.

 Reversed flow on 1583 faces (75.5% area) of pressure-outlet 25.
   107  1.6713e-01  1.3918e-03  1.3594e-03  1.3410e-03  2.3427e-03  6.5992e-03  4:44:45 9893

 turbulent viscosity limited to viscosity ratio of 1.000000e+05 in 5 cells 

 Reversed flow on 4358 faces (99.2% area) of pressure-outlet 24.

 Reversed flow on 1582 faces (75.5% area) of pressure-outlet 25.
   108  1.6920e-01  1.4095e-03  1.3732e-03  1.3598e-03  2.3673e-03  6.6258e-03  4:53:44 9892

 turbulent viscosity limited to viscosity ratio of 1.000000e+05 in 11 cells 

 Reversed flow on 4385 faces (100.0% area) of pressure-outlet 24.

 Reversed flow on 1583 faces (75.5% area) of pressure-outlet 25.
   109  1.7111e-01  1.4244e-03  1.3893e-03  1.3727e-03  2.3413e-03  6.4282e-03  5:00:54 9891

 turbulent viscosity limited to viscosity ratio of 1.000000e+05 in 4 cells 

 Reversed flow on 4385 faces (100.0% area) of pressure-outlet 24.

 Reversed flow on 1582 faces (75.5% area) of pressure-outlet 25.
   110  1.7233e-01  1.4390e-03  1.4052e-03  1.3818e-03  2.4006e-03  6.6007e-03  4:33:40 9890

 turbulent viscosity limited to viscosity ratio of 1.000000e+05 in 3 cells 

 Reversed flow on 4385 faces (100.0% area) of pressure-outlet 24.

 Reversed flow on 1583 faces (75.5% area) of pressure-outlet 25.

  iter  continuity  x-velocity  y-velocity  z-velocity           k     epsilon     time/iter
   111  1.7284e-01  1.4593e-03  1.4256e-03  1.3930e-03  2.4109e-03  6.4549e-03  4:11:52 9889

 turbulent viscosity limited to viscosity ratio of 1.000000e+05 in 1 cells 

 Reversed flow on 4385 faces (100.0% area) of pressure-outlet 24.

 Reversed flow on 1581 faces (75.5% area) of pressure-outlet 25.
   112  1.7424e-01  1.4926e-03  1.4558e-03  1.4145e-03  2.4741e-03  6.5739e-03  3:54:26 9888

 turbulent viscosity limited to viscosity ratio of 1.000000e+05 in 3 cells 

 Reversed flow on 4385 faces (100.0% area) of pressure-outlet 24.

 Reversed flow on 1579 faces (75.4% area) of pressure-outlet 25.
   113  1.7589e-01  1.5343e-03  1.4943e-03  1.4416e-03  2.4978e-03  6.5099e-03  4:13:27 9887

 turbulent viscosity limited to viscosity ratio of 1.000000e+05 in 2 cells 

 Reversed flow on 4385 faces (100.0% area) of pressure-outlet 24.

 Reversed flow on 1576 faces (75.2% area) of pressure-outlet 25.
   114  1.7834e-01  1.5741e-03  1.5279e-03  1.4683e-03  2.5369e-03  6.7252e-03  4:28:38 9886

 turbulent viscosity limited to viscosity ratio of 1.000000e+05 in 5 cells 

 Reversed flow on 4385 faces (100.0% area) of pressure-outlet 24.

 Reversed flow on 1574 faces (75.1% area) of pressure-outlet 25.
   115  1.8129e-01  1.6075e-03  1.5517e-03  1.4906e-03  2.5471e-03  6.8202e-03  4:07:50 9885

 Reversed flow on 4385 faces (100.0% area) of pressure-outlet 24.

 Reversed flow on 1571 faces (75.0% area) of pressure-outlet 25.
   116  1.8387e-01  1.6363e-03  1.5675e-03  1.5028e-03  2.5739e-03  7.0909e-03  4:24:09 9884

 Reversed flow on 4385 faces (100.0% area) of pressure-outlet 24.

 Reversed flow on 1572 faces (75.0% area) of pressure-outlet 25.
   117  1.8591e-01  1.6545e-03  1.5793e-03  1.5048e-03  2.5613e-03  7.1447e-03  4:37:11 9883

 Reversed flow on 4385 faces (100.0% area) of pressure-outlet 24.

 Reversed flow on 1572 faces (75.0% area) of pressure-outlet 25.
   118  1.8692e-01  1.6663e-03  1.5827e-03  1.5007e-03  2.5840e-03  7.3244e-03  4:14:40 9882

 turbulent viscosity limited to viscosity ratio of 1.000000e+05 in 3 cells 

 Reversed flow on 4385 faces (100.0% area) of pressure-outlet 24.

 Reversed flow on 1574 faces (75.1% area) of pressure-outlet 25.
   119  1.8736e-01  1.6697e-03  1.5830e-03  1.4976e-03  2.5658e-03  7.3284e-03  4:29:35 9881

 turbulent viscosity limited to viscosity ratio of 1.000000e+05 in 3 cells 

 Reversed flow on 4385 faces (100.0% area) of pressure-outlet 24.

 Reversed flow on 1574 faces (75.2% area) of pressure-outlet 25.
   120  1.8790e-01  1.6679e-03  1.5871e-03  1.4994e-03  2.6037e-03  7.5052e-03  4:41:31 9880

 Reversed flow on 4385 faces (100.0% area) of pressure-outlet 24.

 Reversed flow on 1572 faces (75.1% area) of pressure-outlet 25.
   121  1.8844e-01  1.6685e-03  1.5943e-03  1.5061e-03  2.5898e-03  7.4116e-03  4:18:07 9879

 Reversed flow on 4385 faces (100.0% area) of pressure-outlet 24.

 Reversed flow on 1573 faces (75.1% area) of pressure-outlet 25.

  iter  continuity  x-velocity  y-velocity  z-velocity           k     epsilon     time/iter
   122  1.8952e-01  1.6720e-03  1.6130e-03  1.5241e-03  2.6337e-03  7.4006e-03  4:32:20 9878

 Reversed flow on 4385 faces (100.0% area) of pressure-outlet 24.

 Reversed flow on 1576 faces (75.3% area) of pressure-outlet 25.
   123  1.9119e-01  1.6882e-03  1.6353e-03  1.5536e-03  2.6489e-03  7.5012e-03  4:10:46 9877

 Reversed flow on 4383 faces (100.0% area) of pressure-outlet 24.

 Reversed flow on 1578 faces (75.4% area) of pressure-outlet 25.
   124  1.9359e-01  1.7072e-03  1.6606e-03  1.5926e-03  2.7197e-03  7.6614e-03  4:26:26 9876

 Reversed flow on 4345 faces (99.0% area) of pressure-outlet 24.

 Reversed flow on 1579 faces (75.4% area) of pressure-outlet 25.
   125  1.9632e-01  1.7330e-03  1.6855e-03  1.6335e-03  2.7268e-03  7.8116e-03  4:38:57 9875

 Reversed flow on 4302 faces (97.9% area) of pressure-outlet 24.

 Reversed flow on 1579 faces (75.4% area) of pressure-outlet 25.
   126  1.9928e-01  1.7596e-03  1.7144e-03  1.6721e-03  2.7483e-03  7.6439e-03  4:16:03 9874

 Reversed flow on 4278 faces (97.2% area) of pressure-outlet 24.

 Reversed flow on 1578 faces (75.4% area) of pressure-outlet 25.
   127  2.0126e-01  1.7872e-03  1.7361e-03  1.7038e-03  2.7547e-03  7.8013e-03  4:30:39 9873

 Reversed flow on 4269 faces (97.0% area) of pressure-outlet 24.

 Reversed flow on 1580 faces (75.4% area) of pressure-outlet 25.
   128  2.0338e-01  1.8044e-03  1.7646e-03  1.7220e-03  2.7821e-03  7.4596e-03  4:42:18 9872

 Reversed flow on 4265 faces (96.9% area) of pressure-outlet 24.

 Reversed flow on 1581 faces (75.5% area) of pressure-outlet 25.
   129  2.0505e-01  1.8162e-03  1.7776e-03  1.7245e-03  2.8138e-03  7.6503e-03  4:18:44 9871

 Reversed flow on 4265 faces (97.0% area) of pressure-outlet 24.

 Reversed flow on 1582 faces (75.5% area) of pressure-outlet 25.
   130  2.0624e-01  1.8077e-03  1.7808e-03  1.7110e-03  2.7895e-03  7.2377e-03  4:32:46 9870

 Reversed flow on 4271 faces (97.1% area) of pressure-outlet 24.

 Reversed flow on 1584 faces (75.6% area) of pressure-outlet 25.
   131  2.0725e-01  1.7910e-03  1.7624e-03  1.6805e-03  2.7664e-03  7.6218e-03  4:43:59 9869

 turbulent viscosity limited to viscosity ratio of 1.000000e+05 in 1 cells 

 Reversed flow on 4272 faces (97.1% area) of pressure-outlet 24.

 Reversed flow on 1582 faces (75.5% area) of pressure-outlet 25.
   132  2.0667e-01  1.7487e-03  1.7346e-03  1.6459e-03  2.6834e-03  7.1740e-03  4:52:57 9868

 Reversed flow on 4276 faces (97.2% area) of pressure-outlet 24.

 Reversed flow on 1577 faces (75.3% area) of pressure-outlet 25.

  iter  continuity  x-velocity  y-velocity  z-velocity           k     epsilon     time/iter
   133  2.0459e-01  1.7010e-03  1.6797e-03  1.6027e-03  2.5915e-03  7.1072e-03  4:27:13 9867

 Reversed flow on 4283 faces (97.4% area) of pressure-outlet 24.

 Reversed flow on 1578 faces (75.3% area) of pressure-outlet 25.
   134  2.0165e-01  1.6401e-03  1.6236e-03  1.5515e-03  2.4632e-03  6.5775e-03  4:39:32 9866

 Reversed flow on 4296 faces (97.8% area) of pressure-outlet 24.

 Reversed flow on 1578 faces (75.4% area) of pressure-outlet 25.
   135  1.9791e-01  1.5918e-03  1.5584e-03  1.4947e-03  2.4118e-03  6.9500e-03  4:16:29 9865

 Reversed flow on 4303 faces (98.0% area) of pressure-outlet 24.

 Reversed flow on 1579 faces (75.4% area) of pressure-outlet 25.
   136  1.9431e-01  1.5312e-03  1.5054e-03  1.4439e-03  2.3315e-03  6.6022e-03  4:30:56 9864

 Reversed flow on 4310 faces (98.3% area) of pressure-outlet 24.

 Reversed flow on 1578 faces (75.4% area) of pressure-outlet 25.
   137  1.9082e-01  1.4864e-03  1.4491e-03  1.3930e-03  2.2711e-03  6.2482e-03  4:42:28 9863

 Reversed flow on 4333 faces (98.9% area) of pressure-outlet 24.

 Reversed flow on 1577 faces (75.3% area) of pressure-outlet 25.
   138  1.8793e-01  1.4380e-03  1.4101e-03  1.3483e-03  2.1782e-03  5.8391e-03  4:51:42 9862

 Reversed flow on 4369 faces (99.7% area) of pressure-outlet 24.

 Reversed flow on 1576 faces (75.2% area) of pressure-outlet 25.
   139  1.8529e-01  1.4156e-03  1.3644e-03  1.3049e-03  2.1486e-03  6.1829e-03  4:59:05 9861

 Reversed flow on 4383 faces (100.0% area) of pressure-outlet 24.

 Reversed flow on 1576 faces (75.3% area) of pressure-outlet 25.
   140  1.8296e-01  1.3836e-03  1.3389e-03  1.2684e-03  2.0741e-03  5.9282e-03  4:32:06 9860

 Reversed flow on 4385 faces (100.0% area) of pressure-outlet 24.

 Reversed flow on 1575 faces (75.2% area) of pressure-outlet 25.
   141  1.8046e-01  1.3723e-03  1.3221e-03  1.2415e-03  2.0660e-03  5.8417e-03  4:43:23 9859

 Reversed flow on 4385 faces (100.0% area) of pressure-outlet 24.

 Reversed flow on 1572 faces (75.1% area) of pressure-outlet 25.
   142  1.7925e-01  1.3623e-03  1.3264e-03  1.2280e-03  2.0317e-03  5.5683e-03  4:19:33 9858

 Reversed flow on 4385 faces (100.0% area) of pressure-outlet 24.

 Reversed flow on 1570 faces (75.0% area) of pressure-outlet 25.
   143  1.7919e-01  1.3759e-03  1.3341e-03  1.2288e-03  2.0854e-03  6.0872e-03  4:33:20 9857

 Reversed flow on 4385 faces (100.0% area) of pressure-outlet 24.

 Reversed flow on 1570 faces (75.0% area) of pressure-outlet 25.

  iter  continuity  x-velocity  y-velocity  z-velocity           k     epsilon     time/iter
   144  1.7844e-01  1.3808e-03  1.3560e-03  1.2434e-03  2.0648e-03  5.9011e-03  4:44:21 9856

 Reversed flow on 4385 faces (100.0% area) of pressure-outlet 24.

 Reversed flow on 1569 faces (74.9% area) of pressure-outlet 25.
   145  1.7745e-01  1.4026e-03  1.3741e-03  1.2658e-03  2.1073e-03  6.0148e-03  4:53:09 9855

 Reversed flow on 4385 faces (100.0% area) of pressure-outlet 24.

 Reversed flow on 1566 faces (74.8% area) of pressure-outlet 25.
   146  1.7716e-01  1.4162e-03  1.4039e-03  1.2890e-03  2.0729e-03  5.7541e-03  4:27:21 9854

 Reversed flow on 4385 faces (100.0% area) of pressure-outlet 24.

 Reversed flow on 1566 faces (74.8% area) of pressure-outlet 25.
   147  1.7676e-01  1.4428e-03  1.4232e-03  1.3092e-03  2.1379e-03  6.3772e-03  4:06:42 9853

 Reversed flow on 4385 faces (100.0% area) of pressure-outlet 24.

 Reversed flow on 1570 faces (75.0% area) of pressure-outlet 25.
   148  1.7708e-01  1.4528e-03  1.4464e-03  1.3221e-03  2.1155e-03  6.1247e-03  4:23:01 9852

 Reversed flow on 4385 faces (100.0% area) of pressure-outlet 24.

 Reversed flow on 1569 faces (74.9% area) of pressure-outlet 25.
   149  1.7689e-01  1.4751e-03  1.4502e-03  1.3328e-03  2.1639e-03  6.4255e-03  4:36:04 9851

 Reversed flow on 4385 faces (100.0% area) of pressure-outlet 24.

 Reversed flow on 1571 faces (75.0% area) of pressure-outlet 25.
   150  1.7684e-01  1.4783e-03  1.4526e-03  1.3425e-03  2.1527e-03  6.4649e-03  4:46:30 9850

 Reversed flow on 4385 faces (100.0% area) of pressure-outlet 24.

 Reversed flow on 1571 faces (75.0% area) of pressure-outlet 25.
   151  1.7707e-01  1.4865e-03  1.4328e-03  1.3465e-03  2.2251e-03  7.0839e-03  4:54:50 9849

 Reversed flow on 4385 faces (100.0% area) of pressure-outlet 24.

 Reversed flow on 1573 faces (75.1% area) of pressure-outlet 25.
   152  1.7737e-01  1.4740e-03  1.4168e-03  1.3399e-03  2.2233e-03  7.1374e-03  4:28:40 9848

 Reversed flow on 4385 faces (100.0% area) of pressure-outlet 24.

 Reversed flow on 1576 faces (75.2% area) of pressure-outlet 25.
   153  1.7692e-01  1.4743e-03  1.3969e-03  1.3294e-03  2.2781e-03  7.5671e-03  4:40:34 9847

 Reversed flow on 4385 faces (100.0% area) of pressure-outlet 24.

 Reversed flow on 1580 faces (75.4% area) of pressure-outlet 25.
   154  1.7637e-01  1.4638e-03  1.3932e-03  1.3220e-03  2.2726e-03  7.7046e-03  4:17:15 9846

 Reversed flow on 4385 faces (100.0% area) of pressure-outlet 24.

 Reversed flow on 1580 faces (75.4% area) of pressure-outlet 25.

  iter  continuity  x-velocity  y-velocity  z-velocity           k     epsilon     time/iter
   155  1.7529e-01  1.4684e-03  1.3852e-03  1.3141e-03  2.2841e-03  7.8665e-03  3:58:36 9845

 Reversed flow on 4385 faces (100.0% area) of pressure-outlet 24.

 Reversed flow on 1580 faces (75.4% area) of pressure-outlet 25.
   156  1.7399e-01  1.4686e-03  1.3896e-03  1.3100e-03  2.2493e-03  7.6969e-03  4:16:29 9844

 Reversed flow on 4385 faces (100.0% area) of pressure-outlet 24.

 Reversed flow on 1578 faces (75.3% area) of pressure-outlet 25.
   157  1.7240e-01  1.4808e-03  1.3934e-03  1.3076e-03  2.2809e-03  7.7080e-03  4:30:47 9843

 Reversed flow on 4385 faces (100.0% area) of pressure-outlet 24.

 Reversed flow on 1582 faces (75.5% area) of pressure-outlet 25.
   158  1.7107e-01  1.4925e-03  1.4117e-03  1.3137e-03  2.3098e-03  7.9572e-03  4:09:25 9842

 Reversed flow on 4385 faces (100.0% area) of pressure-outlet 24.

 Reversed flow on 1581 faces (75.5% area) of pressure-outlet 25.
   159  1.7035e-01  1.5070e-03  1.4343e-03  1.3285e-03  2.3315e-03  7.9305e-03  4:57:55 9841

 Reversed flow on 4385 faces (100.0% area) of pressure-outlet 24.

 Reversed flow on 1583 faces (75.5% area) of pressure-outlet 25.
   160  1.6970e-01  1.5115e-03  1.4565e-03  1.3530e-03  2.3942e-03  8.0164e-03  4:31:07 9840

 Reversed flow on 4385 faces (100.0% area) of pressure-outlet 24.

 Reversed flow on 1579 faces (75.3% area) of pressure-outlet 25.
   161  1.6928e-01  1.5219e-03  1.4866e-03  1.3842e-03  2.5191e-03  8.2607e-03  4:42:28 9839

 Reversed flow on 4385 faces (100.0% area) of pressure-outlet 24.

 Reversed flow on 1581 faces (75.4% area) of pressure-outlet 25.
   162  1.6910e-01  1.5401e-03  1.5262e-03  1.4289e-03  2.7376e-03  9.0744e-03  4:51:32 9838

 Reversed flow on 4385 faces (100.0% area) of pressure-outlet 24.

 Reversed flow on 1580 faces (75.4% area) of pressure-outlet 25.
   163  1.6982e-01  1.5813e-03  1.5856e-03  1.4891e-03  3.0043e-03  9.9375e-03  4:58:47 9837

 Reversed flow on 4385 faces (100.0% area) of pressure-outlet 24.

 Reversed flow on 1579 faces (75.3% area) of pressure-outlet 25.
   164  1.7216e-01  1.6500e-03  1.6649e-03  1.5617e-03  3.3274e-03  1.0999e-02  4:31:47 9836

 Reversed flow on 4385 faces (100.0% area) of pressure-outlet 24.

 Reversed flow on 1580 faces (75.4% area) of pressure-outlet 25.
   165  1.7576e-01  1.7538e-03  1.7704e-03  1.6519e-03  3.6574e-03  1.1955e-02  4:42:58 9835

 turbulent viscosity limited to viscosity ratio of 1.000000e+05 in 1 cells 

 Reversed flow on 4385 faces (100.0% area) of pressure-outlet 24.

 Reversed flow on 1581 faces (75.4% area) of pressure-outlet 25.

  iter  continuity  x-velocity  y-velocity  z-velocity           k     epsilon     time/iter
   166  1.8046e-01  1.8897e-03  1.8899e-03  1.7639e-03  3.9989e-03  1.2645e-02  4:19:08 9834

 Reversed flow on 4385 faces (100.0% area) of pressure-outlet 24.

 Reversed flow on 1582 faces (75.5% area) of pressure-outlet 25.
   167  1.8561e-01  2.0170e-03  1.9790e-03  1.8723e-03  4.2751e-03  1.3311e-02  4:32:51 9833

 Reversed flow on 4385 faces (100.0% area) of pressure-outlet 24.

 Reversed flow on 1582 faces (75.5% area) of pressure-outlet 25.
   168  1.9078e-01  2.1138e-03  2.0283e-03  1.9566e-03  4.3505e-03  1.3296e-02  4:11:01 9832

 Reversed flow on 4356 faces (99.3% area) of pressure-outlet 24.

 Reversed flow on 1580 faces (75.4% area) of pressure-outlet 25.
   169  1.9518e-01  2.1617e-03  2.0455e-03  2.0017e-03  4.3584e-03  1.3458e-02  3:53:34 9831

 turbulent viscosity limited to viscosity ratio of 1.000000e+05 in 9 cells 

 Reversed flow on 4294 faces (97.9% area) of pressure-outlet 24.

 Reversed flow on 1586 faces (75.7% area) of pressure-outlet 25.
   170  1.9917e-01  2.1693e-03  2.0415e-03  2.0270e-03  4.3827e-03  1.3429e-02  3:39:36 9830

 turbulent viscosity limited to viscosity ratio of 1.000000e+05 in 42 cells 

 Reversed flow on 4251 faces (96.8% area) of pressure-outlet 24.

 Reversed flow on 1590 faces (75.8% area) of pressure-outlet 25.
   171  2.0322e-01  2.1567e-03  2.0373e-03  2.0321e-03  4.3879e-03  1.2929e-02  4:01:11 9829

 turbulent viscosity limited to viscosity ratio of 1.000000e+05 in 70 cells 

 Reversed flow on 4229 faces (96.2% area) of pressure-outlet 24.

 Reversed flow on 1591 faces (75.9% area) of pressure-outlet 25.
   172  2.0646e-01  2.1125e-03  2.0336e-03  2.0295e-03  4.3107e-03  1.2003e-02  4:18:27 9828

 turbulent viscosity limited to viscosity ratio of 1.000000e+05 in 6 cells 

 Reversed flow on 4222 faces (96.0% area) of pressure-outlet 24.

 Reversed flow on 1588 faces (75.7% area) of pressure-outlet 25.
   173  2.0771e-01  2.0567e-03  2.0049e-03  2.0019e-03  4.0701e-03  1.1072e-02  3:59:30 9827

 turbulent viscosity limited to viscosity ratio of 1.000000e+05 in 2 cells 

 Reversed flow on 4221 faces (96.0% area) of pressure-outlet 24.

 Reversed flow on 1590 faces (75.8% area) of pressure-outlet 25.
   174  2.0627e-01  1.9853e-03  1.9530e-03  1.9403e-03  3.7308e-03  9.8901e-03  4:17:05 9826

 Reversed flow on 4232 faces (96.2% area) of pressure-outlet 24.

 Reversed flow on 1584 faces (75.5% area) of pressure-outlet 25.
   175  2.0223e-01  1.9052e-03  1.8720e-03  1.8513e-03  3.4407e-03  9.0957e-03  4:31:09 9825

 Reversed flow on 4244 faces (96.5% area) of pressure-outlet 24.

 Reversed flow on 1581 faces (75.4% area) of pressure-outlet 25.
   176  1.9698e-01  1.8211e-03  1.7972e-03  1.7619e-03  3.1864e-03  8.4042e-03  4:42:23 9824

 Reversed flow on 4257 faces (96.8% area) of pressure-outlet 24.

 Reversed flow on 1581 faces (75.4% area) of pressure-outlet 25.

  iter  continuity  x-velocity  y-velocity  z-velocity           k     epsilon     time/iter
   177  1.9081e-01  1.7502e-03  1.7256e-03  1.6749e-03  3.0364e-03  8.1967e-03  4:18:38 9823

 Reversed flow on 4275 faces (97.3% area) of pressure-outlet 24.

 Reversed flow on 1581 faces (75.4% area) of pressure-outlet 25.
   178  1.8474e-01  1.6999e-03  1.6752e-03  1.6048e-03  2.9594e-03  8.1442e-03  4:32:22 9822

 Reversed flow on 4291 faces (97.7% area) of pressure-outlet 24.

 Reversed flow on 1583 faces (75.5% area) of pressure-outlet 25.
   179  1.7919e-01  1.6788e-03  1.6403e-03  1.5555e-03  2.9818e-03  8.2782e-03  4:10:36 9821

 Reversed flow on 4305 faces (98.1% area) of pressure-outlet 24.

 Reversed flow on 1583 faces (75.5% area) of pressure-outlet 25.
   180  1.7528e-01  1.6758e-03  1.6284e-03  1.5307e-03  3.0225e-03  8.4466e-03  4:25:56 9820

 Reversed flow on 4314 faces (98.3% area) of pressure-outlet 24.

 Reversed flow on 1579 faces (75.3% area) of pressure-outlet 25.
   181  1.7328e-01  1.6883e-03  1.6377e-03  1.5311e-03  3.0783e-03  8.7184e-03  4:38:11 9819

 Reversed flow on 4328 faces (98.6% area) of pressure-outlet 24.

 Reversed flow on 1583 faces (75.5% area) of pressure-outlet 25.
   182  1.7294e-01  1.6983e-03  1.6625e-03  1.5539e-03  3.0730e-03  8.8139e-03  4:15:15 9818

 Reversed flow on 4339 faces (98.9% area) of pressure-outlet 24.

 Reversed flow on 1585 faces (75.6% area) of pressure-outlet 25.
   183  1.7370e-01  1.7203e-03  1.6961e-03  1.5944e-03  3.0991e-03  9.0411e-03  4:29:38 9817

 Reversed flow on 4349 faces (99.1% area) of pressure-outlet 24.

 Reversed flow on 1586 faces (75.7% area) of pressure-outlet 25.
   184  1.7601e-01  1.7500e-03  1.7381e-03  1.6437e-03  3.0526e-03  8.9479e-03  4:08:24 9816

 Reversed flow on 4357 faces (99.3% area) of pressure-outlet 24.

 Reversed flow on 1584 faces (75.6% area) of pressure-outlet 25.
   185  1.7926e-01  1.7837e-03  1.7679e-03  1.6925e-03  3.0507e-03  9.0668e-03  3:51:25 9815

[...]

 Reversed flow on 4207 faces (95.5% area) of pressure-outlet 24.

 Reversed flow on 1557 faces (74.4% area) of pressure-outlet 25.
  9929  2.3446e-01  2.2554e-03  2.1596e-03  2.2115e-03  3.9239e-03  1.1824e-02  0:01:57   71

 Reversed flow on 4234 faces (96.1% area) of pressure-outlet 24.

 Reversed flow on 1563 faces (74.7% area) of pressure-outlet 25.
  9930  2.3669e-01  2.2537e-03  2.1824e-03  2.2322e-03  3.8754e-03  1.1615e-02  0:02:00   70

 Reversed flow on 4259 faces (96.8% area) of pressure-outlet 24.

 Reversed flow on 1559 faces (74.5% area) of pressure-outlet 25.
  9931  2.3962e-01  2.2348e-03  2.2028e-03  2.2278e-03  3.8119e-03  1.1167e-02  0:02:02   69

 Reversed flow on 4276 faces (97.3% area) of pressure-outlet 24.

 Reversed flow on 1564 faces (74.7% area) of pressure-outlet 25.
  9932  2.4261e-01  2.2066e-03  2.1933e-03  2.2009e-03  3.6464e-03  1.0628e-02  0:01:50   68

 Reversed flow on 4290 faces (97.6% area) of pressure-outlet 24.

 Reversed flow on 1563 faces (74.6% area) of pressure-outlet 25.
  9933  2.4435e-01  2.1620e-03  2.1718e-03  2.1511e-03  3.4167e-03  9.8114e-03  0:01:54   67

 Reversed flow on 4308 faces (98.0% area) of pressure-outlet 24.

 Reversed flow on 1557 faces (74.3% area) of pressure-outlet 25.

  iter  continuity  x-velocity  y-velocity  z-velocity           k     epsilon     time/iter
  9934  2.4404e-01  2.1254e-03  2.1201e-03  2.0919e-03  3.2242e-03  9.1778e-03  0:01:43   66

 Reversed flow on 4320 faces (98.3% area) of pressure-outlet 24.

 Reversed flow on 1554 faces (74.2% area) of pressure-outlet 25.
  9935  2.4222e-01  2.0661e-03  2.0694e-03  2.0254e-03  3.0005e-03  8.4930e-03  0:01:47   65

 Reversed flow on 4249 faces (97.3% area) of pressure-outlet 24.

 Reversed flow on 1550 faces (73.9% area) of pressure-outlet 25.
  9936  2.3948e-01  2.0119e-03  2.0153e-03  1.9512e-03  2.9459e-03  8.3439e-03  0:01:50   64

 Reversed flow on 4173 faces (95.9% area) of pressure-outlet 24.

 Reversed flow on 1549 faces (73.9% area) of pressure-outlet 25.
  9937  2.3724e-01  1.9494e-03  1.9633e-03  1.8881e-03  2.8625e-03  8.2965e-03  0:01:39   63

 turbulent viscosity limited to viscosity ratio of 1.000000e+05 in 1 cells 

 Reversed flow on 4112 faces (94.6% area) of pressure-outlet 24.

 Reversed flow on 1546 faces (73.8% area) of pressure-outlet 25.
  9938  2.3491e-01  1.8913e-03  1.9037e-03  1.8372e-03  2.8875e-03  8.3131e-03  0:01:43   62

 turbulent viscosity limited to viscosity ratio of 1.000000e+05 in 1 cells 

 Reversed flow on 4057 faces (93.4% area) of pressure-outlet 24.

 Reversed flow on 1542 faces (73.6% area) of pressure-outlet 25.
  9939  2.3204e-01  1.8361e-03  1.8523e-03  1.7981e-03  2.8322e-03  8.0142e-03  0:01:45   61

 Reversed flow on 4020 faces (92.6% area) of pressure-outlet 24.

 Reversed flow on 1540 faces (73.5% area) of pressure-outlet 25.
  9940  2.2887e-01  1.8017e-03  1.8143e-03  1.7770e-03  2.8741e-03  8.2496e-03  0:01:47   60

 Reversed flow on 3981 faces (91.8% area) of pressure-outlet 24.

 Reversed flow on 1546 faces (73.8% area) of pressure-outlet 25.
  9941  2.2522e-01  1.7842e-03  1.7927e-03  1.7683e-03  2.8714e-03  8.1659e-03  0:01:36   59

 Reversed flow on 3949 faces (91.1% area) of pressure-outlet 24.

 Reversed flow on 1545 faces (73.8% area) of pressure-outlet 25.
  9942  2.2209e-01  1.7751e-03  1.7857e-03  1.7744e-03  2.8751e-03  7.9574e-03  0:01:39   58

 Reversed flow on 3945 faces (91.1% area) of pressure-outlet 24.

 Reversed flow on 1550 faces (74.0% area) of pressure-outlet 25.
  9943  2.2001e-01  1.7840e-03  1.7931e-03  1.7880e-03  2.8169e-03  7.7359e-03  0:01:29   57

 Reversed flow on 3949 faces (91.2% area) of pressure-outlet 24.

 Reversed flow on 1547 faces (73.9% area) of pressure-outlet 25.
  9944  2.1891e-01  1.7948e-03  1.8100e-03  1.8068e-03  2.7916e-03  7.6560e-03  0:01:32   56

 Reversed flow on 3946 faces (91.3% area) of pressure-outlet 24.

 Reversed flow on 1554 faces (74.2% area) of pressure-outlet 25.

  iter  continuity  x-velocity  y-velocity  z-velocity           k     epsilon     time/iter
  9945  2.1793e-01  1.8201e-03  1.8312e-03  1.8208e-03  2.7656e-03  7.7397e-03  0:01:24   55

 Reversed flow on 3950 faces (91.5% area) of pressure-outlet 24.

 Reversed flow on 1548 faces (73.9% area) of pressure-outlet 25.
  9946  2.1736e-01  1.8337e-03  1.8549e-03  1.8289e-03  2.7793e-03  7.9824e-03  0:01:27   54

 Reversed flow on 3956 faces (91.7% area) of pressure-outlet 24.

 Reversed flow on 1555 faces (74.3% area) of pressure-outlet 25.
  9947  2.1642e-01  1.8542e-03  1.8757e-03  1.8315e-03  2.8130e-03  8.0483e-03  0:01:30   53

 Reversed flow on 3948 faces (91.6% area) of pressure-outlet 24.

 Reversed flow on 1556 faces (74.3% area) of pressure-outlet 25.
  9948  2.1524e-01  1.8545e-03  1.8903e-03  1.8271e-03  2.8587e-03  8.3245e-03  0:01:31   52

 Reversed flow on 3955 faces (91.7% area) of pressure-outlet 24.

 Reversed flow on 1556 faces (74.4% area) of pressure-outlet 25.
  9949  2.1426e-01  1.8645e-03  1.8954e-03  1.8235e-03  2.9517e-03  8.7301e-03  0:01:22   51

 Reversed flow on 3967 faces (91.9% area) of pressure-outlet 24.

 Reversed flow on 1560 faces (74.5% area) of pressure-outlet 25.
  9950  2.1382e-01  1.8698e-03  1.9080e-03  1.8292e-03  3.0405e-03  9.2265e-03  0:01:24   50

 Reversed flow on 3976 faces (92.0% area) of pressure-outlet 24.

 Reversed flow on 1558 faces (74.5% area) of pressure-outlet 25.
  9951  2.1460e-01  1.8800e-03  1.9210e-03  1.8394e-03  3.1069e-03  9.2395e-03  0:01:16   49

 Reversed flow on 3959 faces (91.3% area) of pressure-outlet 24.

 Reversed flow on 1562 faces (74.7% area) of pressure-outlet 25.
  9952  2.1592e-01  1.8890e-03  1.9392e-03  1.8476e-03  3.1872e-03  9.4408e-03  0:01:19   48

 Reversed flow on 3947 faces (90.7% area) of pressure-outlet 24.

 Reversed flow on 1558 faces (74.4% area) of pressure-outlet 25.
  9953  2.1869e-01  1.9085e-03  1.9590e-03  1.8679e-03  3.3559e-03  9.7947e-03  0:01:20   47

 Reversed flow on 3939 faces (90.3% area) of pressure-outlet 24.

 Reversed flow on 1554 faces (74.2% area) of pressure-outlet 25.
  9954  2.2182e-01  1.9505e-03  1.9911e-03  1.8914e-03  3.4859e-03  1.0114e-02  0:01:21   46

 Reversed flow on 3937 faces (90.2% area) of pressure-outlet 24.

 Reversed flow on 1554 faces (74.2% area) of pressure-outlet 25.
  9955  2.2488e-01  1.9986e-03  2.0140e-03  1.9237e-03  3.6313e-03  1.0181e-02  0:01:13   45

 Reversed flow on 3947 faces (90.3% area) of pressure-outlet 24.

 Reversed flow on 1555 faces (74.3% area) of pressure-outlet 25.

  iter  continuity  x-velocity  y-velocity  z-velocity           k     epsilon     time/iter
  9956  2.2676e-01  2.0436e-03  2.0407e-03  1.9626e-03  3.7400e-03  1.0469e-02  0:01:14   44

 Reversed flow on 3956 faces (90.3% area) of pressure-outlet 24.

 Reversed flow on 1552 faces (74.1% area) of pressure-outlet 25.
  9957  2.2818e-01  2.0738e-03  2.0603e-03  1.9934e-03  3.8986e-03  1.0860e-02  0:01:07   43

 Reversed flow on 3971 faces (90.5% area) of pressure-outlet 24.

 Reversed flow on 1550 faces (74.0% area) of pressure-outlet 25.
  9958  2.2948e-01  2.0861e-03  2.0660e-03  2.0280e-03  4.0234e-03  1.0888e-02  0:01:01   42

 Reversed flow on 3997 faces (91.0% area) of pressure-outlet 24.

 Reversed flow on 1552 faces (74.2% area) of pressure-outlet 25.
  9959  2.3031e-01  2.0774e-03  2.0657e-03  2.0560e-03  4.1137e-03  1.0831e-02  0:01:04   41

 Reversed flow on 4023 faces (91.6% area) of pressure-outlet 24.

 Reversed flow on 1551 faces (74.1% area) of pressure-outlet 25.
  9960  2.3117e-01  2.0621e-03  2.0527e-03  2.0752e-03  4.1272e-03  1.0667e-02  0:00:58   40

 Reversed flow on 4045 faces (92.1% area) of pressure-outlet 24.

 Reversed flow on 1550 faces (74.0% area) of pressure-outlet 25.
  9961  2.3250e-01  2.0366e-03  2.0409e-03  2.0868e-03  3.9940e-03  1.0543e-02  0:01:01   39

 Reversed flow on 4079 faces (92.8% area) of pressure-outlet 24.

 Reversed flow on 1554 faces (74.2% area) of pressure-outlet 25.
  9962  2.3332e-01  1.9985e-03  2.0291e-03  2.0749e-03  3.7768e-03  1.0126e-02  0:01:02   38

 Reversed flow on 4102 faces (93.5% area) of pressure-outlet 24.

 Reversed flow on 1557 faces (74.4% area) of pressure-outlet 25.
  9963  2.3371e-01  1.9632e-03  2.0154e-03  2.0471e-03  3.5811e-03  9.8483e-03  0:00:56   37

 Reversed flow on 4119 faces (94.0% area) of pressure-outlet 24.

 Reversed flow on 1560 faces (74.5% area) of pressure-outlet 25.
  9964  2.3322e-01  1.9305e-03  1.9937e-03  2.0177e-03  3.3890e-03  9.4338e-03  0:00:58   36

 Reversed flow on 4150 faces (94.8% area) of pressure-outlet 24.

 Reversed flow on 1563 faces (74.7% area) of pressure-outlet 25.
  9965  2.3179e-01  1.9099e-03  1.9654e-03  1.9863e-03  3.2665e-03  9.2559e-03  0:00:59   35

 Reversed flow on 4184 faces (95.5% area) of pressure-outlet 24.

 Reversed flow on 1561 faces (74.6% area) of pressure-outlet 25.
  9966  2.3057e-01  1.9026e-03  1.9397e-03  1.9591e-03  3.1756e-03  8.9107e-03  0:01:00   34

 turbulent viscosity limited to viscosity ratio of 1.000000e+05 in 1 cells 

 Reversed flow on 4233 faces (96.3% area) of pressure-outlet 24.

 Reversed flow on 1560 faces (74.5% area) of pressure-outlet 25.

  iter  continuity  x-velocity  y-velocity  z-velocity           k     epsilon     time/iter
  9967  2.2925e-01  1.9068e-03  1.9186e-03  1.9361e-03  3.1882e-03  9.1901e-03  0:00:59   33

 turbulent viscosity limited to viscosity ratio of 1.000000e+05 in 6 cells 

 Reversed flow on 4264 faces (96.8% area) of pressure-outlet 24.

 Reversed flow on 1561 faces (74.5% area) of pressure-outlet 25.
  9968  2.2825e-01  1.9101e-03  1.9141e-03  1.9181e-03  3.1662e-03  9.3215e-03  0:00:59   32

 turbulent viscosity limited to viscosity ratio of 1.000000e+05 in 8 cells 

 Reversed flow on 4299 faces (97.7% area) of pressure-outlet 24.

 Reversed flow on 1557 faces (74.3% area) of pressure-outlet 25.
  9969  2.2811e-01  1.9207e-03  1.9208e-03  1.9062e-03  3.1687e-03  9.3493e-03  0:00:52   31

 turbulent viscosity limited to viscosity ratio of 1.000000e+05 in 6 cells 

 Reversed flow on 4327 faces (98.6% area) of pressure-outlet 24.

 Reversed flow on 1555 faces (74.2% area) of pressure-outlet 25.
  9970  2.2847e-01  1.9347e-03  1.9440e-03  1.9022e-03  3.1613e-03  9.4472e-03  0:00:52   30

 Reversed flow on 4363 faces (99.4% area) of pressure-outlet 24.

 Reversed flow on 1554 faces (74.1% area) of pressure-outlet 25.
  9971  2.2838e-01  1.9663e-03  1.9650e-03  1.9061e-03  3.2020e-03  9.7949e-03  0:00:46   29

 Reversed flow on 4380 faces (99.9% area) of pressure-outlet 24.

 Reversed flow on 1557 faces (74.3% area) of pressure-outlet 25.
  9972  2.2873e-01  1.9942e-03  1.9851e-03  1.9208e-03  3.1319e-03  9.7156e-03  0:00:47   28

 Reversed flow on 4385 faces (100.0% area) of pressure-outlet 24.

 Reversed flow on 1559 faces (74.4% area) of pressure-outlet 25.
  9973  2.2980e-01  2.0381e-03  1.9961e-03  1.9424e-03  3.1161e-03  9.8326e-03  0:00:47   27

 Reversed flow on 4384 faces (100.0% area) of pressure-outlet 24.

 Reversed flow on 1556 faces (74.2% area) of pressure-outlet 25.
  9974  2.3081e-01  2.0682e-03  2.0106e-03  1.9652e-03  3.0498e-03  9.5956e-03  0:00:47   26

 Reversed flow on 4381 faces (99.9% area) of pressure-outlet 24.

 Reversed flow on 1558 faces (74.3% area) of pressure-outlet 25.
  9975  2.3201e-01  2.0976e-03  2.0194e-03  1.9953e-03  3.0537e-03  9.6267e-03  0:00:41   25

 Reversed flow on 4305 faces (97.9% area) of pressure-outlet 24.

 Reversed flow on 1553 faces (74.1% area) of pressure-outlet 25.
  9976  2.3353e-01  2.1029e-03  2.0309e-03  2.0190e-03  2.9916e-03  9.1965e-03  0:00:41   24

 Reversed flow on 4232 faces (96.1% area) of pressure-outlet 24.

 Reversed flow on 1551 faces (74.1% area) of pressure-outlet 25.
  9977  2.3435e-01  2.1105e-03  2.0446e-03  2.0278e-03  3.0032e-03  9.2209e-03  0:00:41   23

 Reversed flow on 4183 faces (95.1% area) of pressure-outlet 24.

 Reversed flow on 1557 faces (74.3% area) of pressure-outlet 25.

  iter  continuity  x-velocity  y-velocity  z-velocity           k     epsilon     time/iter
  9978  2.3527e-01  2.1061e-03  2.0600e-03  2.0263e-03  2.9600e-03  9.0649e-03  0:00:40   22

 Reversed flow on 4158 faces (94.6% area) of pressure-outlet 24.

 Reversed flow on 1560 faces (74.5% area) of pressure-outlet 25.
  9979  2.3628e-01  2.1112e-03  2.0664e-03  2.0186e-03  3.0464e-03  9.6273e-03  0:00:39   21

 Reversed flow on 4148 faces (94.3% area) of pressure-outlet 24.

 Reversed flow on 1558 faces (74.4% area) of pressure-outlet 25.
  9980  2.3668e-01  2.1060e-03  2.0855e-03  2.0152e-03  3.0404e-03  9.4824e-03  0:00:34   20

 Reversed flow on 4149 faces (94.3% area) of pressure-outlet 24.

 Reversed flow on 1558 faces (74.4% area) of pressure-outlet 25.
  9981  2.3627e-01  2.1018e-03  2.1006e-03  2.0127e-03  3.1551e-03  9.8500e-03  0:00:33   19

 Reversed flow on 4156 faces (94.4% area) of pressure-outlet 24.

 Reversed flow on 1559 faces (74.5% area) of pressure-outlet 25.
  9982  2.3661e-01  2.1124e-03  2.1269e-03  2.0215e-03  3.2372e-03  9.9502e-03  0:00:32   18

 Reversed flow on 4163 faces (94.5% area) of pressure-outlet 24.

 Reversed flow on 1560 faces (74.5% area) of pressure-outlet 25.
  9983  2.3756e-01  2.1456e-03  2.1705e-03  2.0477e-03  3.4052e-03  1.0385e-02  0:00:28   17

 Reversed flow on 4171 faces (94.6% area) of pressure-outlet 24.

 Reversed flow on 1562 faces (74.6% area) of pressure-outlet 25.
  9984  2.3886e-01  2.1827e-03  2.2196e-03  2.0865e-03  3.5751e-03  1.1062e-02  0:00:27   16

 Reversed flow on 4175 faces (94.7% area) of pressure-outlet 24.

 Reversed flow on 1562 faces (74.6% area) of pressure-outlet 25.
  9985  2.4109e-01  2.2105e-03  2.2726e-03  2.1234e-03  3.7999e-03  1.1626e-02  0:00:24   15

 Reversed flow on 4183 faces (94.8% area) of pressure-outlet 24.

 Reversed flow on 1558 faces (74.4% area) of pressure-outlet 25.
  9986  2.4361e-01  2.2445e-03  2.3179e-03  2.1682e-03  3.9755e-03  1.2266e-02  0:00:20   14

 Reversed flow on 4194 faces (95.1% area) of pressure-outlet 24.

 Reversed flow on 1553 faces (74.2% area) of pressure-outlet 25.
  9987  2.4685e-01  2.2869e-03  2.3792e-03  2.2264e-03  4.1153e-03  1.2400e-02  0:00:20   13

 Reversed flow on 4201 faces (95.2% area) of pressure-outlet 24.

 Reversed flow on 1552 faces (74.2% area) of pressure-outlet 25.
  9988  2.5027e-01  2.3312e-03  2.4081e-03  2.2870e-03  4.1690e-03  1.2481e-02  0:00:20   12

 Reversed flow on 4113 faces (93.4% area) of pressure-outlet 24.

 Reversed flow on 1553 faces (74.2% area) of pressure-outlet 25.

  iter  continuity  x-velocity  y-velocity  z-velocity           k     epsilon     time/iter
  9989  2.5328e-01  2.3401e-03  2.4118e-03  2.3155e-03  4.1816e-03  1.2200e-02  0:00:17   11

 Reversed flow on 4116 faces (93.4% area) of pressure-outlet 24.

 Reversed flow on 1552 faces (74.2% area) of pressure-outlet 25.
  9990  2.5487e-01  2.3381e-03  2.3788e-03  2.3130e-03  4.2363e-03  1.2260e-02  0:00:14   10

 Reversed flow on 4135 faces (93.7% area) of pressure-outlet 24.

 Reversed flow on 1551 faces (74.2% area) of pressure-outlet 25.
  9991  2.5395e-01  2.3145e-03  2.3412e-03  2.2860e-03  4.1990e-03  1.1662e-02  0:00:12    9

 Reversed flow on 4141 faces (93.8% area) of pressure-outlet 24.

 Reversed flow on 1554 faces (74.3% area) of pressure-outlet 25.
  9992  2.5136e-01  2.2928e-03  2.2974e-03  2.2439e-03  4.1769e-03  1.1414e-02  0:00:12    8

 Reversed flow on 4141 faces (93.7% area) of pressure-outlet 24.

 Reversed flow on 1552 faces (74.2% area) of pressure-outlet 25.
  9993  2.4774e-01  2.2562e-03  2.2583e-03  2.1865e-03  4.0658e-03  1.1468e-02  0:00:10    7

 Reversed flow on 4148 faces (93.8% area) of pressure-outlet 24.

 Reversed flow on 1553 faces (74.3% area) of pressure-outlet 25.
  9994  2.4292e-01  2.2309e-03  2.2146e-03  2.1306e-03  3.9503e-03  1.1553e-02  0:00:08    6

 Reversed flow on 4156 faces (94.0% area) of pressure-outlet 24.

 Reversed flow on 1549 faces (74.0% area) of pressure-outlet 25.
  9995  2.3775e-01  2.1982e-03  2.1827e-03  2.0844e-03  3.6283e-03  1.0490e-02  0:00:07    5

 Reversed flow on 4163 faces (94.2% area) of pressure-outlet 24.

 Reversed flow on 1554 faces (74.2% area) of pressure-outlet 25.
  9996  2.3310e-01  2.1723e-03  2.1587e-03  2.0457e-03  3.5733e-03  1.0438e-02  0:00:05    4

 Reversed flow on 4170 faces (94.4% area) of pressure-outlet 24.

 Reversed flow on 1552 faces (74.2% area) of pressure-outlet 25.
  9997  2.2960e-01  2.1490e-03  2.1414e-03  2.0175e-03  3.4177e-03  1.0229e-02  0:00:04    3

 Reversed flow on 4184 faces (94.7% area) of pressure-outlet 24.

 Reversed flow on 1552 faces (74.2% area) of pressure-outlet 25.
  9998  2.2656e-01  2.1295e-03  2.1252e-03  1.9938e-03  3.3964e-03  1.0330e-02  0:00:03    2

 Reversed flow on 4195 faces (95.0% area) of pressure-outlet 24.

 Reversed flow on 1552 faces (74.2% area) of pressure-outlet 25.
  9999  2.2437e-01  2.1250e-03  2.1105e-03  1.9786e-03  3.3521e-03  1.0285e-02  0:00:02    1

 Reversed flow on 4205 faces (95.2% area) of pressure-outlet 24.

 Reversed flow on 1558 faces (74.5% area) of pressure-outlet 25.

  iter  continuity  x-velocity  y-velocity  z-velocity           k     epsilon     time/iter
 10000  2.2227e-01  2.1192e-03  2.1006e-03  1.9711e-03  3.3494e-03  1.0459e-02  0:00:00    0

> ;/solve/set/time-step 0.01
;solve/set/data-sampling y 1 y y
;/solve/dual-time-iterate 5000 10

adjoint/                file/                   report/
define/                 mesh/                   solve/
display/                parallel/               surface/
exit                    plot/                   views/

> ; set save
;no .h5 format

adjoint/                file/                   report/
define/                 mesh/                   solve/
display/                parallel/               surface/
exit                    plot/                   views/

> /file/cff-files? n

> ;/file/autosave/root-name "Me_317"
/file/write-case-data "E:\LGF\Sim\task\0825_1\P_85\FluentData_M100_-4700_85.cas"
Writing "E:\LGF\Sim\task\0825_1\P_85\FluentData_M100_-4700_85.cas"...

    6990 mixed cells, zone 15, binary.
  565192 mixed cells, zone 16, binary.
  128494 mixed cells, zone 17, binary.
   99631 mixed cells, zone 18, binary.
  112217 mixed cells, zone 19, binary.
    6990 cell partition ids, zone 15, 100 partitions, binary.
  565192 cell partition ids, zone 16, 100 partitions, binary.
  128494 cell partition ids, zone 17, 100 partitions, binary.
   99631 cell partition ids, zone 18, 100 partitions, binary.
  112217 cell partition ids, zone 19, 100 partitions, binary.
    3768 mixed wall faces, zone  1, binary.
   34998 triangular wall faces, zone  2, binary.
    6023 triangular wall faces, zone  3, binary.
   11483 triangular wall faces, zone  4, binary.
    5640 triangular wall faces, zone  5, binary.
    2602 triangular interior faces, zone  6, binary.
     310 quadrilateral interior faces, zone  7, binary.
    2662 mixed interior faces, zone  8, binary.
    2776 mixed interior faces, zone  9, binary.
   18821 mixed interior faces, zone 10, binary.
 1189685 mixed interior faces, zone 11, binary.
  263371 mixed interior faces, zone 12, binary.
  203749 mixed interior faces, zone 13, binary.
  217848 triangular interior faces, zone 14, binary.
     637 triangular pressure-outlet faces, zone 22, binary.
     100 quadrilateral velocity-inlet faces, zone 23, binary.
    4385 mixed pressure-outlet faces, zone 24, binary.
    2646 mixed pressure-outlet faces, zone 25, binary.
    1906 triangular velocity-inlet faces, zone 26, binary.
    4293 triangular wall faces, zone 27, binary.
    4279 triangular wall faces, zone 28, binary.
  252813 nodes, binary.
  252813 node flags, binary.
Done.


Writing "E:\LGF\Sim\task\0825_1\P_85\FluentData_M100_-4700_85.dat"...

Done.



> ;/display/save-picture "E:\LGF\Sim\task\0825_1\P_85\FluentData_M100_-4700_85jpg"
/exit/c