
              Welcome to ANSYS Fluent 2020 R1

              Copyright 1987-2020 ANSYS, Inc. All Rights Reserved.
              Unauthorized use, distribution or duplication is prohibited.
              This product is subject to U.S. laws governing export and re-export.
              For full Legal Notice, see documentation.

Build Time: Dec  2 2019 14:15:26 EST  Build Id: 10114  
 
Host spawning Node 0 on machine "DESKTOP-8RUTNJQ" (win64).
WARNING: No cached password or password provided.
         use '-pass' or '-cache' to provide password
Host 0 -- ip 192.168.161.95 -- ranks 0 - 99

 host | 0
======|======
    0 : SHM

 Prot -  All Intra-node communication is: SHM


-------------------------------------------------------------------------------
ID    Hostname         Core     O.S.         PID     Vendor        
-------------------------------------------------------------------------------
n99   DESKTOP-8RUTNJQ  100/128  Windows-x64  121232  AMD EPYC 7702 
n98   DESKTOP-8RUTNJQ  99/128   Windows-x64  45160   AMD EPYC 7702 
n97   DESKTOP-8RUTNJQ  98/128   Windows-x64  116584  AMD EPYC 7702 
n96   DESKTOP-8RUTNJQ  97/128   Windows-x64  118172  AMD EPYC 7702 
n95   DESKTOP-8RUTNJQ  96/128   Windows-x64  117536  AMD EPYC 7702 
n94   DESKTOP-8RUTNJQ  95/128   Windows-x64  107224  AMD EPYC 7702 
n93   DESKTOP-8RUTNJQ  94/128   Windows-x64  119844  AMD EPYC 7702 
n92   DESKTOP-8RUTNJQ  93/128   Windows-x64  121052  AMD EPYC 7702 
n91   DESKTOP-8RUTNJQ  92/128   Windows-x64  37664   AMD EPYC 7702 
n90   DESKTOP-8RUTNJQ  91/128   Windows-x64  28216   AMD EPYC 7702 
n89   DESKTOP-8RUTNJQ  90/128   Windows-x64  119820  AMD EPYC 7702 
n88   DESKTOP-8RUTNJQ  89/128   Windows-x64  115980  AMD EPYC 7702 
n87   DESKTOP-8RUTNJQ  88/128   Windows-x64  117788  AMD EPYC 7702 
n86   DESKTOP-8RUTNJQ  87/128   Windows-x64  121300  AMD EPYC 7702 
n85   DESKTOP-8RUTNJQ  86/128   Windows-x64  105064  AMD EPYC 7702 
n84   DESKTOP-8RUTNJQ  85/128   Windows-x64  117100  AMD EPYC 7702 
n83   DESKTOP-8RUTNJQ  84/128   Windows-x64  119492  AMD EPYC 7702 
n82   DESKTOP-8RUTNJQ  83/128   Windows-x64  115896  AMD EPYC 7702 
n81   DESKTOP-8RUTNJQ  82/128   Windows-x64  123048  AMD EPYC 7702 
n80   DESKTOP-8RUTNJQ  81/128   Windows-x64  116632  AMD EPYC 7702 
-------------------------------------------------------------------------------
ID    Hostname         Core     O.S.         PID     Vendor        
-------------------------------------------------------------------------------
n79   DESKTOP-8RUTNJQ  80/128   Windows-x64  36256   AMD EPYC 7702 
n78   DESKTOP-8RUTNJQ  79/128   Windows-x64  36260   AMD EPYC 7702 
n77   DESKTOP-8RUTNJQ  78/128   Windows-x64  114852  AMD EPYC 7702 
n76   DESKTOP-8RUTNJQ  77/128   Windows-x64  120652  AMD EPYC 7702 
n75   DESKTOP-8RUTNJQ  76/128   Windows-x64  118532  AMD EPYC 7702 
n74   DESKTOP-8RUTNJQ  75/128   Windows-x64  124184  AMD EPYC 7702 
n73   DESKTOP-8RUTNJQ  74/128   Windows-x64  121204  AMD EPYC 7702 
n72   DESKTOP-8RUTNJQ  73/128   Windows-x64  38608   AMD EPYC 7702 
n71   DESKTOP-8RUTNJQ  72/128   Windows-x64  123572  AMD EPYC 7702 
n70   DESKTOP-8RUTNJQ  71/128   Windows-x64  122508  AMD EPYC 7702 
n69   DESKTOP-8RUTNJQ  70/128   Windows-x64  121896  AMD EPYC 7702 
n68   DESKTOP-8RUTNJQ  69/128   Windows-x64  120504  AMD EPYC 7702 
n67   DESKTOP-8RUTNJQ  68/128   Windows-x64  119980  AMD EPYC 7702 
n66   DESKTOP-8RUTNJQ  67/128   Windows-x64  119472  AMD EPYC 7702 
n65   DESKTOP-8RUTNJQ  66/128   Windows-x64  119112  AMD EPYC 7702 
n64   DESKTOP-8RUTNJQ  65/128   Windows-x64  118812  AMD EPYC 7702 
n63   DESKTOP-8RUTNJQ  64/128   Windows-x64  118476  AMD EPYC 7702 
n62   DESKTOP-8RUTNJQ  63/128   Windows-x64  117932  AMD EPYC 7702 
n61   DESKTOP-8RUTNJQ  62/128   Windows-x64  116764  AMD EPYC 7702 
n60   DESKTOP-8RUTNJQ  61/128   Windows-x64  115188  AMD EPYC 7702 
-------------------------------------------------------------------------------
ID    Hostname         Core     O.S.         PID     Vendor        
-------------------------------------------------------------------------------
n59   DESKTOP-8RUTNJQ  60/128   Windows-x64  113808  AMD EPYC 7702 
n58   DESKTOP-8RUTNJQ  59/128   Windows-x64  108352  AMD EPYC 7702 
n57   DESKTOP-8RUTNJQ  58/128   Windows-x64  115956  AMD EPYC 7702 
n56   DESKTOP-8RUTNJQ  57/128   Windows-x64  30112   AMD EPYC 7702 
n55   DESKTOP-8RUTNJQ  56/128   Windows-x64  112536  AMD EPYC 7702 
n54   DESKTOP-8RUTNJQ  55/128   Windows-x64  111460  AMD EPYC 7702 
n53   DESKTOP-8RUTNJQ  54/128   Windows-x64  108620  AMD EPYC 7702 
n52   DESKTOP-8RUTNJQ  53/128   Windows-x64  99976   AMD EPYC 7702 
n51   DESKTOP-8RUTNJQ  52/128   Windows-x64  45396   AMD EPYC 7702 
n50   DESKTOP-8RUTNJQ  51/128   Windows-x64  104588  AMD EPYC 7702 
n49   DESKTOP-8RUTNJQ  50/128   Windows-x64  151888  AMD EPYC 7702 
n48   DESKTOP-8RUTNJQ  49/128   Windows-x64  120436  AMD EPYC 7702 
n47   DESKTOP-8RUTNJQ  48/128   Windows-x64  114072  AMD EPYC 7702 
n46   DESKTOP-8RUTNJQ  47/128   Windows-x64  102284  AMD EPYC 7702 
n45   DESKTOP-8RUTNJQ  46/128   Windows-x64  118360  AMD EPYC 7702 
n44   DESKTOP-8RUTNJQ  45/128   Windows-x64  118468  AMD EPYC 7702 
n43   DESKTOP-8RUTNJQ  44/128   Windows-x64  108376  AMD EPYC 7702 
n42   DESKTOP-8RUTNJQ  43/128   Windows-x64  110852  AMD EPYC 7702 
n41   DESKTOP-8RUTNJQ  42/128   Windows-x64  117836  AMD EPYC 7702 
n40   DESKTOP-8RUTNJQ  41/128   Windows-x64  118888  AMD EPYC 7702 
-------------------------------------------------------------------------------
ID    Hostname         Core     O.S.         PID     Vendor        
-------------------------------------------------------------------------------
n39   DESKTOP-8RUTNJQ  40/128   Windows-x64  115404  AMD EPYC 7702 
n38   DESKTOP-8RUTNJQ  39/128   Windows-x64  119312  AMD EPYC 7702 
n37   DESKTOP-8RUTNJQ  38/128   Windows-x64  105616  AMD EPYC 7702 
n36   DESKTOP-8RUTNJQ  37/128   Windows-x64  105872  AMD EPYC 7702 
n35   DESKTOP-8RUTNJQ  36/128   Windows-x64  118228  AMD EPYC 7702 
n34   DESKTOP-8RUTNJQ  35/128   Windows-x64  113428  AMD EPYC 7702 
n33   DESKTOP-8RUTNJQ  34/128   Windows-x64  122856  AMD EPYC 7702 
n32   DESKTOP-8RUTNJQ  33/128   Windows-x64  121844  AMD EPYC 7702 
n31   DESKTOP-8RUTNJQ  32/128   Windows-x64  118376  AMD EPYC 7702 
n30   DESKTOP-8RUTNJQ  31/128   Windows-x64  116588  AMD EPYC 7702 
n29   DESKTOP-8RUTNJQ  30/128   Windows-x64  115856  AMD EPYC 7702 
n28   DESKTOP-8RUTNJQ  29/128   Windows-x64  117548  AMD EPYC 7702 
n27   DESKTOP-8RUTNJQ  28/128   Windows-x64  110504  AMD EPYC 7702 
n26   DESKTOP-8RUTNJQ  27/128   Windows-x64  116828  AMD EPYC 7702 
n25   DESKTOP-8RUTNJQ  26/128   Windows-x64  118124  AMD EPYC 7702 
n24   DESKTOP-8RUTNJQ  25/128   Windows-x64  118032  AMD EPYC 7702 
n23   DESKTOP-8RUTNJQ  24/128   Windows-x64  120640  AMD EPYC 7702 
n22   DESKTOP-8RUTNJQ  23/128   Windows-x64  107208  AMD EPYC 7702 
n21   DESKTOP-8RUTNJQ  22/128   Windows-x64  113792  AMD EPYC 7702 
n20   DESKTOP-8RUTNJQ  21/128   Windows-x64  117588  AMD EPYC 7702 
-------------------------------------------------------------------------------
ID    Hostname         Core     O.S.         PID     Vendor        
-------------------------------------------------------------------------------
n19   DESKTOP-8RUTNJQ  20/128   Windows-x64  115644  AMD EPYC 7702 
n18   DESKTOP-8RUTNJQ  19/128   Windows-x64  119776  AMD EPYC 7702 
n17   DESKTOP-8RUTNJQ  18/128   Windows-x64  109692  AMD EPYC 7702 
n16   DESKTOP-8RUTNJQ  17/128   Windows-x64  110552  AMD EPYC 7702 
n15   DESKTOP-8RUTNJQ  16/128   Windows-x64  113420  AMD EPYC 7702 
n14   DESKTOP-8RUTNJQ  15/128   Windows-x64  122444  AMD EPYC 7702 
n13   DESKTOP-8RUTNJQ  14/128   Windows-x64  118160  AMD EPYC 7702 
n12   DESKTOP-8RUTNJQ  13/128   Windows-x64  119884  AMD EPYC 7702 
n11   DESKTOP-8RUTNJQ  12/128   Windows-x64  122792  AMD EPYC 7702 
n10   DESKTOP-8RUTNJQ  11/128   Windows-x64  118536  AMD EPYC 7702 
n9    DESKTOP-8RUTNJQ  10/128   Windows-x64  112340  AMD EPYC 7702 
n8    DESKTOP-8RUTNJQ  9/128    Windows-x64  111760  AMD EPYC 7702 
n7    DESKTOP-8RUTNJQ  8/128    Windows-x64  117060  AMD EPYC 7702 
n6    DESKTOP-8RUTNJQ  7/128    Windows-x64  120176  AMD EPYC 7702 
n5    DESKTOP-8RUTNJQ  6/128    Windows-x64  119144  AMD EPYC 7702 
n4    DESKTOP-8RUTNJQ  5/128    Windows-x64  91480   AMD EPYC 7702 
n3    DESKTOP-8RUTNJQ  4/128    Windows-x64  110240  AMD EPYC 7702 
n2    DESKTOP-8RUTNJQ  3/128    Windows-x64  118168  AMD EPYC 7702 
n1    DESKTOP-8RUTNJQ  2/128    Windows-x64  22584   AMD EPYC 7702 
n0*   DESKTOP-8RUTNJQ  1/128    Windows-x64  119972  AMD EPYC 7702 
host  DESKTOP-8RUTNJQ           Windows-x64  107464  AMD EPYC 7702 

MPI Option Selected: ibmmpi
Selected system interconnect: default
-------------------------------------------------------------------------------



Cleanup script file is E:\LGF\Sim\Script\\cleanup-fluent-DESKTOP-8RUTNJQ-110160.bat

Reading journal file E:\LGF\Sim\task\0826_1\P_85\J_M100_85_-4100.jou...

> ;Read case
/file/read-case E:\LGF\Sim\basic_Mesh\Model_100.msh

40: Affinity not set!

8: Affinity not set!

90: Affinity not set!

12: Affinity not set!

14: Affinity not set!

42: Affinity not set!

44: Affinity not set!

66: Affinity not set!

0: Affinity not set!

32: Affinity not set!

46: Affinity not set!

49: Affinity not set!

54: Affinity not set!

58: Affinity not set!

68: Affinity not set!

86: Affinity not set!

92: Affinity not set!

70: Affinity not set!

6: Affinity not set!

16: Affinity not set!

18: Affinity not set!

22: Affinity not set!

24: Affinity not set!

26: Affinity not set!

38: Affinity not set!

43: Affinity not set!

52: Affinity not set!

55: Affinity not set!

56: Affinity not set!

72: Affinity not set!

74: Affinity not set!

76: Affinity not set!

82: Affinity not set!

84: Affinity not set!

95: Affinity not set!

96: Affinity not set!

98: Affinity not set!

4: Affinity not set!

5: Affinity not set!

9: Affinity not set!

10: Affinity not set!

11: Affinity not set!

13: Affinity not set!

19: Affinity not set!

20: Affinity not set!

25: Affinity not set!

27: Affinity not set!

30: Affinity not set!

35: Affinity not set!

36: Affinity not set!

50: Affinity not set!

51: Affinity not set!

53: Affinity not set!

60: Affinity not set!

62: Affinity not set!

63: Affinity not set!

64: Affinity not set!

65: Affinity not set!

67: Affinity not set!

69: Affinity not set!

71: Affinity not set!

78: Affinity not set!

80: Affinity not set!

81: Affinity not set!

87: Affinity not set!

88: Affinity not set!

89: Affinity not set!

93: Affinity not set!

Reading "E:\LGF\Sim\basic_Mesh\Model_100.msh"...

Buffering for file scan...

  209972 nodes, binary.
   42841 nodes, binary.
    3768 mixed wall faces, zone  1, binary.
   34998 triangular wall faces, zone  2, binary.
    6023 triangular wall faces, zone  3, binary.
   11483 triangular wall faces, zone  4, binary.
    5640 triangular wall faces, zone  5, binary.
    2602 triangular interior faces, zone  6, binary.
     310 quadrilateral interior faces, zone  7, binary.
    2662 mixed interior faces, zone  8, binary.
    2776 mixed interior faces, zone  9, binary.
   18821 mixed interior faces, zone 10, binary.
 1189685 mixed interior faces, zone 11, binary.
  263371 mixed interior faces, zone 12, binary.
  203749 mixed interior faces, zone 13, binary.
  217848 triangular interior faces, zone 14, binary.
     637 triangular wall faces, zone 22, binary.
     100 quadrilateral wall faces, zone 23, binary.
    4385 mixed wall faces, zone 24, binary.
    2646 mixed wall faces, zone 25, binary.
    1906 triangular wall faces, zone 26, binary.
    4293 triangular wall faces, zone 27, binary.
    4279 triangular wall faces, zone 28, binary.
    6990 mixed cells, zone 15, binary.
  565192 mixed cells, zone 16, binary.
  128494 mixed cells, zone 17, binary.
   99631 mixed cells, zone 18, binary.
  112217 mixed cells, zone 19, binary.

Building...
     mesh
	auto partitioning mesh by Metis (fast),
	distributing mesh
		parts..................................................,
		faces..................................................,
		nodes..................................................,
		cells..................................................,
        bandwidth reduction using Reverse Cuthill-McKee: 9508/523 = 18.1797
     materials,
     interface,
     domains,
     zones,
	wall_tx_xi
	wall_xi_tx
	i2
	p2
	p1
	i1
	o1
	towparts-xi_zhui
	towparts-tc_tc
	towparts-tx_tx
	towparts-block_block
	towparts-xi_huan
	interior-towparts-xi_zhui
	interior-towparts-tc_tc
	interior-towparts-tx_tx
	interior-towparts-block_block
	interior-towparts-xi_huan
	interior-towparts-block_block-towparts-tc_tc
	interior-towparts-block_block-towparts-tx_tx
	interior-towparts-xi_huan-towparts-xi_zhui
	interior-towparts-block_block-towparts-xi_zhui
	wall-towparts-xi_zhui
	wall-towparts-tc_tc
	wall-towparts-tx_tx
	wall-towparts-block_block
	wall-towparts-xi_huan
     parallel,
Done.

> 
adjoint/                file/                   report/
define/                 mesh/                   solve/
display/                parallel/               surface/
exit                    plot/                   views/

> ; set save
;;/file/auto-save/data-frequency 2000
;;/file/auto-save/case-frequency each-time
;;/file/autosave/root-name "30du.msh.gz"

adjoint/                file/                   report/
define/                 mesh/                   solve/
display/                parallel/               surface/
exit                    plot/                   views/

> ;delete mesh interface
;/define/mesh-interface/delete contact_region

adjoint/                file/                   report/
define/                 mesh/                   solve/
display/                parallel/               surface/
exit                    plot/                   views/

> ;/define/operating-conditions/gravity/ y 0 -9.8 6

adjoint/                file/                   report/
define/                 mesh/                   solve/
display/                parallel/               surface/
exit                    plot/                   views/

> ;scale
;;/mesh/scale 0.125 0.125 0.125

adjoint/                file/                   report/
define/                 mesh/                   solve/
display/                parallel/               surface/
exit                    plot/                   views/

> ;general

adjoint/                file/                   report/
define/                 mesh/                   solve/
display/                parallel/               surface/
exit                    plot/                   views/

> /define/operating-conditions? invalid command [operating-conditions?]
y 0.0 -9.8 0.0

> 
adjoint/                file/                   report/
define/                 mesh/                   solve/
display/                parallel/               surface/
exit                    plot/                   views/

> /define/models steady? Steady solution model is already enabled.
y
invalid command [y]

> ;/define/models unsteady-1st-order? y

adjoint/                file/                   report/
define/                 mesh/                   solve/
display/                parallel/               surface/
exit                    plot/                   views/

> 
adjoint/                file/                   report/
define/                 mesh/                   solve/
display/                parallel/               surface/
exit                    plot/                   views/

> ;define viscous model

adjoint/                file/                   report/
define/                 mesh/                   solve/
display/                parallel/               surface/
exit                    plot/                   views/

> /define/models/viscous/ke-rng? y   ;;swirl?
/define/models/viscous/rng-swirl-model? yes

> 
adjoint/                file/                   report/
define/                 mesh/                   solve/
display/                parallel/               surface/
exit                    plot/                   views/

> 
adjoint/                file/                   report/
define/                 mesh/                   solve/
display/                parallel/               surface/
exit                    plot/                   views/

> ;/define/models/viscous/ke-rng-swirl-model? y
;/define/models/viscous/ke-rng/rng-swirl-model? y

adjoint/                file/                   report/
define/                 mesh/                   solve/
display/                parallel/               surface/
exit                    plot/                   views/

> 
adjoint/                file/                   report/
define/                 mesh/                   solve/
display/                parallel/               surface/
exit                    plot/                   views/

> ;/define/models/viscous/ke-realizable? y            

adjoint/                file/                   report/
define/                 mesh/                   solve/
display/                parallel/               surface/
exit                    plot/                   views/

> 
adjoint/                file/                   report/
define/                 mesh/                   solve/
display/                parallel/               surface/
exit                    plot/                   views/

> ; modify boundary-condition types

adjoint/                file/                   report/
define/                 mesh/                   solve/
display/                parallel/               surface/
exit                    plot/                   views/

> ;/define/boundary-conditions/zone-type contact_region-src wall
;/define/boundary-conditions/zone-type contact_region-trg wall
/define/boundary-conditions/zone-type i1 velocity-inlet

> /define/boundary-conditions/zone-type i2 velocity-inlet

> 
adjoint/                file/                   report/
define/                 mesh/                   solve/
display/                parallel/               surface/
exit                    plot/                   views/

> /define/boundary-conditions/zone-type o1 pressure-outlet

> /define/boundary-conditions/zone-type p1 pressure-outlet

> /define/boundary-conditions/zone-type p2 pressure-outlet

> 
adjoint/                file/                   report/
define/                 mesh/                   solve/
display/                parallel/               surface/
exit                    plot/                   views/

> ;set inlet boundary-conditions
/define/boundary-conditions/velocity-inlet (i2 i1)
i2  n n y y n 10 n 0 n n y 5 10

> /define/boundary-conditions/velocity-inlet (i2 i1)
i1  n n y y n 85 n 0 n n y 5 10

> /define/boundary-conditions/pressure-outlet (p2 p1 o1)
o1  y n -4100 n y n n y 5 10 y n n n

> /define/boundary-conditions/pressure-outlet (p2 p1 o1)
p1  y n 0 n y n n y 5 10 y n n n 

> /define/boundary-conditions/pressure-outlet (p2 p1 o1)
p2  y n 0 n y n n y 5 10 y n n n 

> 
adjoint/                file/                   report/
define/                 mesh/                   solve/
display/                parallel/               surface/
exit                    plot/                   views/

> ;;;;n y y n 0 y n 51.96 n 30 n 0 y n 1 n 1
;/define/boundary-conditions/copy-bc inlet front ()
;/define/boundary-conditions/wall lj y motion-bc-moving n n n n 11.11 1 0 0 n n 0 n 0.5

adjoint/                file/                   report/
define/                 mesh/                   solve/
display/                parallel/               surface/
exit                    plot/                   views/

> ; set solution controls
;/solve/set/p-v-coupling 21
;20: SIMPLE
;21: SIMPLEC
;22: PISO
;24: coupled
;/solve/set/under-relaxation pressure 0.5
;/solve/set/under-relaxation density 0.8
;/solve/set/under-relaxation body-force  0.8
;/solve/set/under-relaxation mom 0.5
;/solve/set/under-relaxation turb-viscosity 0.6
;/solve/set/under-relaxation k 0.6
;/solve/set/under-relaxation epsilon 0.6
;/solve/set/under-relaxation body-force 0.8 turb-viscosity 0.8 density 0.8
;/solve/set/discretization-scheme pressure 10 mom 1 k 1 epsilon 1

adjoint/                file/                   report/
define/                 mesh/                   solve/
display/                parallel/               surface/
exit                    plot/                   views/

> ;set pressure
;10:standard
;11:linear
;12:second order
;13:body force weighted
;14:presto!

adjoint/                file/                   report/
define/                 mesh/                   solve/
display/                parallel/               surface/
exit                    plot/                   views/

> ;set mom
;0:firdst order upwind
;1:second order upwind
;2:power law
;4:quick
;6:third-order muscl

adjoint/                file/                   report/
define/                 mesh/                   solve/
display/                parallel/               surface/
exit                    plot/                   views/

> ;set k
;0:firdst order upwind
;1:second order upwind
;2:power law
;4:quick
;6:third-order muscl

adjoint/                file/                   report/
define/                 mesh/                   solve/
display/                parallel/               surface/
exit                    plot/                   views/

> ;set epdst order upwind
;1:second order upwind
;2:power law
;4:silon
;0:firquick
;6:third-order muscl
;;;;;;;;;;;;;;;;;;;;;;;;;;;;;;;
;;;;;;;;;;;;;;;;;;;;;;;;;;;;;;set monitor point line surface
;;;;;;;;;;;;;;;;;;;;;;;;;;;;;;
/surface/point-surface/ cirPoint1 1.8 2 7

> /surface/point-surface/ cirPoint2 1.5 2 7

> /surface/point-surface/ cirPoint3 1 2 7

> /surface/point-surface/ cirPoint4 0 2 7

> /surface/point-surface/ cirPoint1_synYZ -1.8 2 7

> /surface/point-surface/ cirPoint2_synYZ -1.5 2 7

> /surface/point-surface/ cirPoint3_synYZ -1 2 7

> /surface/point-surface/ cirPoint1_synO -1.8 -2 7

> /surface/point-surface/ cirPoint2_synO -1.5 -2 7

> /surface/point-surface/ cirPoint3_synO -1 -2 7

> 
adjoint/                file/                   report/
define/                 mesh/                   solve/
display/                parallel/               surface/
exit                    plot/                   views/

> /surface/line-surface/ line_1 0 0 2 0 0 7

> 
adjoint/                file/                   report/
define/                 mesh/                   solve/
display/                parallel/               surface/
exit                    plot/                   views/

> /surface/line-surface/ line_2 1 2 2 1 2 7

> /surface/line-surface/ line_2_synYZ -1 2 2 -1 2 7

> 
adjoint/                file/                   report/
define/                 mesh/                   solve/
display/                parallel/               surface/
exit                    plot/                   views/

> /surface/line-surface/ line_3 1.5 2 2 1.5 2 7

> /surface/line-surface/ line_3_synYZ -1.5 2 2 -1.5 2 7

> 
adjoint/                file/                   report/
define/                 mesh/                   solve/
display/                parallel/               surface/
exit                    plot/                   views/

> 
adjoint/                file/                   report/
define/                 mesh/                   solve/
display/                parallel/               surface/
exit                    plot/                   views/

> 
adjoint/                file/                   report/
define/                 mesh/                   solve/
display/                parallel/               surface/
exit                    plot/                   views/

> 
adjoint/                file/                   report/
define/                 mesh/                   solve/
display/                parallel/               surface/
exit                    plot/                   views/

> 
adjoint/                file/                   report/
define/                 mesh/                   solve/
display/                parallel/               surface/
exit                    plot/                   views/

> /surface/plane-slice/ YuanPian_0_0_3 0 0 1 3

> /surface/plane-slice/ YuanPian_0_0_4 0 0 1 4

> /surface/plane-slice/ YuanPian_0_0_5 0 0 1 5

> /surface/plane-slice/ YuanPian_0_0_6 0 0 1 6

> /surface/plane-slice/ YuanPian_0_0_7 0 0 1 7

> 
adjoint/                file/                   report/
define/                 mesh/                   solve/
display/                parallel/               surface/
exit                    plot/                   views/

> /surface/transform-surface/ 10 ()
Center Of Rotation
 0 0 0 
Angle of Rotation
0 0 0 
Translation Distance
0 0 0 0 xiKou 

> 
adjoint/                file/                   report/
define/                 mesh/                   solve/
display/                parallel/               surface/
exit                    plot/                   views/

> 
adjoint/                file/                   report/
define/                 mesh/                   solve/
display/                parallel/               surface/
exit                    plot/                   views/

> 
adjoint/                file/                   report/
define/                 mesh/                   solve/
display/                parallel/               surface/
exit                    plot/                   views/

> 
adjoint/                file/                   report/
define/                 mesh/                   solve/
display/                parallel/               surface/
exit                    plot/                   views/

> ;/solve/monitors/surface/set-monitor miao_V_huan_2 ? velocity-magnitude miao31 miao32 miao33 miao34 miao35 miao36   n n y miao_V_huan_2 100

adjoint/                file/                   report/
define/                 mesh/                   solve/
display/                parallel/               surface/
exit                    plot/                   views/

> 
adjoint/                file/                   report/
define/                 mesh/                   solve/
display/                parallel/               surface/
exit                    plot/                   views/

> /solve/monitors/surface/set-monitor cirPoint1  "Sum" velocity-magnitude cirPoint1 () n n y E:\LGF\Sim\task\0826_1\P_85\txtData\cirPoint1_-4100.txt 100
Information: Converting monitor cirpoint1 to report definition.

> /solve/monitors/surface/set-monitor cirPoint2  "Sum" velocity-magnitude cirPoint2 () n n y E:\LGF\Sim\task\0826_1\P_85\txtData\cirPoint2_-4100.txt 100
Information: Converting monitor cirpoint2 to report definition.

> /solve/monitors/surface/set-monitor cirPoint3  "Sum" velocity-magnitude cirPoint3 () n n y E:\LGF\Sim\task\0826_1\P_85\txtData\cirPoint3_-4100.txt 100
Information: Converting monitor cirpoint3 to report definition.

> /solve/monitors/surface/set-monitor cirPoint1-2  "Sum" velocity-magnitude cirPoint1 cirPoint2 () n n y E:\LGF\Sim\task\0826_1\P_85\txtData\cirPoint1-2_-4100.txt 100
Information: Converting monitor cirpoint1-2 to report definition.

> 
adjoint/                file/                   report/
define/                 mesh/                   solve/
display/                parallel/               surface/
exit                    plot/                   views/

> /solve/monitors/surface/set-monitor line_1   "Facet Average" velocity-magnitude line_1 () n n y E:\LGF\Sim\task\0826_1\P_85\txtData\line_1_-4100.txt 100
Information: Converting monitor line_1 to report definition.

> /solve/monitors/surface/set-monitor line_2   "Facet Average" velocity-magnitude line_2 () n n y E:\LGF\Sim\task\0826_1\P_85\txtData\line_2_-4100.txt 100
Information: Converting monitor line_2 to report definition.

> 
adjoint/                file/                   report/
define/                 mesh/                   solve/
display/                parallel/               surface/
exit                    plot/                   views/

> /solve/monitors/surface/set-monitor YuanPian_0_0_5   "Facet Average" velocity-magnitude YuanPian_0_0_5 () n n y E:\LGF\Sim\task\0826_1\P_85\txtData\YuanPian_0_0_5_-4100.txt 100
Information: Converting monitor yuanpian_0_0_5 to report definition.

> 
adjoint/                file/                   report/
define/                 mesh/                   solve/
display/                parallel/               surface/
exit                    plot/                   views/

> /solve/monitors/surface/set-monitor xiKou   "Facet Average" velocity-magnitude xiKou () n n y E:\LGF\Sim\task\0826_1\P_85\txtData\xiKou_-4100.txt 100
Information: Converting monitor xikou to report definition.

> 
adjoint/                file/                   report/
define/                 mesh/                   solve/
display/                parallel/               surface/
exit                    plot/                   views/

> ;/solve/monitors/surface/set-monitor miao_V_huan_4  "Sum" velocity-magnitude miao37 () n n y E:\LGF\Sim\task\0826_1\P_85\txtData\miao_V_huan_4_-4100.txt 100

adjoint/                file/                   report/
define/                 mesh/                   solve/
display/                parallel/               surface/
exit                    plot/                   views/

> ;set monitor residuals
/solve/monitors/residual/convergence-criteria 0.000001 0.000001 0.000001 0.000001 0.000001 0.000001

> 
adjoint/                file/                   report/
define/                 mesh/                   solve/
display/                parallel/               surface/
exit                    plot/                   views/

> ;set force monitors
;compile C
;/define/user-defined/compiled-functions/compile libudf yes FandMmonitor.c "" "" 
; load C
;/define/user-defined/compiled-functions/load libudf
;;    set hook
;/define/user-defined/function-hooks/execute-at-end "force_and_moment_print::libudf" "" 

adjoint/                file/                   report/
define/                 mesh/                   solve/
display/                parallel/               surface/
exit                    plot/                   views/

> ;/solve/monitors/force/set-drag-monitor cx y che1 zxj1 zxj2 che2 zxj3 zxj4 che3 zxj5 zxj6 () n y "cx-CRH380A" n y 1 0 0
;/solve/monitors/force/set-drag-monitor cy y che1 zxj1 zxj2 che2 zxj3 zxj4 che3 zxj5 zxj6 () n y "cy-1D-30" n y 0 1 0
;/solve/monitors/force/set-drag-monitor cz y che1 zxj1 zxj2 che2 zxj3 zxj4 che3 zxj5 zxj6 () n y "cz-CRH380A" n y 0 0 1

adjoint/                file/                   report/
define/                 mesh/                   solve/
display/                parallel/               surface/
exit                    plot/                   views/

> ;/solve/monitors/force/set-moment-monitor mx y che1 zxj1 zxj2 fd1 che2 zxj3 zxj4 fd2 che3 zxj5 zxj6 () n y "mx-1D-30" n y 0 0 0 1 0 0
;/solve/monitors/force/set-moment-monitor my y che1 zxj1 zxj2 fd1 che2 zxj3 zxj4 fd2 che3 zxj5 zxj6 () n y "my-1D-30" n y 0 0 0 0 1 0
;/solve/monitors/force/set-moment-monitor mz y che1 zxj1 zxj2 fd1 che2 zxj3 zxj4 fd2 che3 zxj5 zxj6 () n y "mz-1D-30" n y 0 0 0 0 0 1

adjoint/                file/                   report/
define/                 mesh/                   solve/
display/                parallel/               surface/
exit                    plot/                   views/

> 
adjoint/                file/                   report/
define/                 mesh/                   solve/
display/                parallel/               surface/
exit                    plot/                   views/

> ;init solve set
/solve/initialize/reference-frame Current Reference Frame : Relative to Cell Zoneabsolute

> /solve/initialize/initialize-flow

> ;solve/set/time-step 0.00005
/solve/iterate 500

  iter  continuity  x-velocity  y-velocity  z-velocity           k     epsilon     time/iter
     1  1.0000e+00  1.0570e+04  9.2552e+02  1.3699e+04  1.6235e+00  1.1705e+03  0:16:38  499

 turbulent viscosity limited to viscosity ratio of 1.000000e+05 in 2 cells 

 Reversed flow on 4385 faces (100.0% area) of pressure-outlet 24.

 Reversed flow on 2646 faces (100.0% area) of pressure-outlet 25.
     2  6.0044e-01  1.0804e-02  8.7962e-03  2.5656e-02  2.5243e-01  1.7061e+00  0:16:36  498

 turbulent viscosity limited to viscosity ratio of 1.000000e+05 in 2 cells 

 Reversed flow on 21 faces (3.7% area) of pressure-outlet 22.

 Reversed flow on 3516 faces (77.4% area) of pressure-outlet 24.
     3  7.2388e-01  2.6364e-02  2.3308e-02  2.7064e-02  3.0573e-01  8.0585e-01  0:16:34  497

 Reversed flow on 20 faces (3.7% area) of pressure-outlet 22.

 Reversed flow on 2015 faces (52.4% area) of pressure-outlet 24.

 Reversed flow on 1216 faces (32.2% area) of pressure-outlet 25.
     4  5.7819e-01  1.1455e-02  1.0883e-02  1.6400e-02  1.2635e-01  5.5734e-01  0:16:32  496

 Reversed flow on 20 faces (3.7% area) of pressure-outlet 22.

 Reversed flow on 2210 faces (57.2% area) of pressure-outlet 24.

 Reversed flow on 146 faces (1.9% area) of pressure-outlet 25.
     5  5.1559e-01  1.1508e-02  1.0515e-02  9.5980e-03  7.0862e-02  4.1819e-01  0:16:30  495

 Reversed flow on 3 faces (0.6% area) of pressure-outlet 22.

 Reversed flow on 2882 faces (73.0% area) of pressure-outlet 24.

 Reversed flow on 1153 faces (31.7% area) of pressure-outlet 25.
     6  4.5361e-01  8.7906e-03  8.1199e-03  8.1486e-03  3.7466e-02  2.7486e-01  0:16:28  494

 Reversed flow on 1 face (0.2% area) of pressure-outlet 22.

 Reversed flow on 2575 faces (65.4% area) of pressure-outlet 24.

 Reversed flow on 573 faces (9.5% area) of pressure-outlet 25.
     7  4.1300e-01  7.1753e-03  6.4308e-03  5.4964e-03  2.2135e-02  1.0603e-01  0:16:26  493

 Reversed flow on 2742 faces (69.5% area) of pressure-outlet 24.

 Reversed flow on 1273 faces (36.5% area) of pressure-outlet 25.
     8  3.8252e-01  6.4848e-03  5.8716e-03  5.1983e-03  1.8967e-02  1.2037e-01  0:16:24  492

 Reversed flow on 2714 faces (68.4% area) of pressure-outlet 24.

 Reversed flow on 1205 faces (35.5% area) of pressure-outlet 25.
     9  3.5598e-01  5.5431e-03  5.0522e-03  4.2107e-03  1.6416e-02  1.0468e-01  0:16:22  491

 turbulent viscosity limited to viscosity ratio of 1.000000e+05 in 2115 cells 

 Reversed flow on 2922 faces (73.6% area) of pressure-outlet 24.

 Reversed flow on 1245 faces (41.4% area) of pressure-outlet 25.
    10  3.3582e-01  4.8997e-03  4.5357e-03  3.8748e-03  1.2085e-02  7.5976e-02  0:16:20  490

 turbulent viscosity limited to viscosity ratio of 1.000000e+05 in 10392 cells 

 Reversed flow on 3032 faces (76.2% area) of pressure-outlet 24.

 Reversed flow on 923 faces (38.2% area) of pressure-outlet 25.
    11  3.0365e-01  4.0967e-03  3.8488e-03  3.4274e-03  8.8718e-03  5.6882e-02  0:14:40  489

 Reversed flow on 3272 faces (82.4% area) of pressure-outlet 24.

 Reversed flow on 937 faces (44.8% area) of pressure-outlet 25.

  iter  continuity  x-velocity  y-velocity  z-velocity           k     epsilon     time/iter
    12  2.7798e-01  3.6280e-03  3.4709e-03  3.2147e-03  7.5723e-03  3.7120e-02  0:14:58  488

 Reversed flow on 3462 faces (87.0% area) of pressure-outlet 24.

 Reversed flow on 1097 faces (52.6% area) of pressure-outlet 25.
    13  2.5475e-01  3.2880e-03  3.1858e-03  2.8214e-03  6.6711e-03  2.8115e-02  0:16:49  487

 Reversed flow on 3844 faces (94.4% area) of pressure-outlet 24.

 Reversed flow on 1243 faces (59.7% area) of pressure-outlet 25.
    14  2.4305e-01  3.2382e-03  3.1531e-03  2.7249e-03  7.2047e-03  2.5590e-02  0:16:40  486

 Reversed flow on 4326 faces (99.3% area) of pressure-outlet 24.

 Reversed flow on 1314 faces (63.2% area) of pressure-outlet 25.
    15  2.3625e-01  3.1429e-03  3.0153e-03  2.7120e-03  7.6198e-03  2.5550e-02  0:14:55  485

 Reversed flow on 4379 faces (99.9% area) of pressure-outlet 24.

 Reversed flow on 1221 faces (59.2% area) of pressure-outlet 25.
    16  2.3323e-01  3.1053e-03  2.9376e-03  2.7829e-03  7.7823e-03  2.5346e-02  0:16:45  484

 turbulent viscosity limited to viscosity ratio of 1.000000e+05 in 6 cells 

 Reversed flow on 4382 faces (99.9% area) of pressure-outlet 24.

 Reversed flow on 1133 faces (55.2% area) of pressure-outlet 25.
    17  2.2782e-01  3.0653e-03  2.8818e-03  2.8252e-03  8.1248e-03  2.6113e-02  0:14:59  483

 turbulent viscosity limited to viscosity ratio of 1.000000e+05 in 78 cells 

 Reversed flow on 4380 faces (99.9% area) of pressure-outlet 24.

 Reversed flow on 1183 faces (57.5% area) of pressure-outlet 25.
    18  2.2169e-01  3.0834e-03  2.8696e-03  2.8818e-03  8.7805e-03  2.8712e-02  0:16:47  482

 turbulent viscosity limited to viscosity ratio of 1.000000e+05 in 215 cells 

 Reversed flow on 4382 faces (99.9% area) of pressure-outlet 24.

 Reversed flow on 1236 faces (59.9% area) of pressure-outlet 25.
    19  2.1762e-01  3.1797e-03  2.9265e-03  2.9783e-03  1.1698e-02  3.2505e-02  0:16:36  481

 turbulent viscosity limited to viscosity ratio of 1.000000e+05 in 358 cells 

 Reversed flow on 4385 faces (100.0% area) of pressure-outlet 24.

 Reversed flow on 1279 faces (61.7% area) of pressure-outlet 25.
    20  2.1604e-01  3.3387e-03  3.0734e-03  3.1265e-03  1.7817e-02  3.9088e-02  0:18:03  480

 turbulent viscosity limited to viscosity ratio of 1.000000e+05 in 637 cells 

 Reversed flow on 4385 faces (100.0% area) of pressure-outlet 24.

 Reversed flow on 1255 faces (60.7% area) of pressure-outlet 25.
    21  2.1651e-01  3.5328e-03  3.2445e-03  3.3224e-03  2.2064e-02  4.4105e-02  0:16:01  479

 turbulent viscosity limited to viscosity ratio of 1.000000e+05 in 1157 cells 

 Reversed flow on 4385 faces (100.0% area) of pressure-outlet 24.

 Reversed flow on 1254 faces (60.5% area) of pressure-outlet 25.
    22  2.1930e-01  3.7743e-03  3.4503e-03  3.5682e-03  2.3471e-02  4.7505e-02  0:15:58  478

 turbulent viscosity limited to viscosity ratio of 1.000000e+05 in 1711 cells 

 Reversed flow on 4385 faces (100.0% area) of pressure-outlet 24.

 Reversed flow on 1272 faces (61.3% area) of pressure-outlet 25.

  iter  continuity  x-velocity  y-velocity  z-velocity           k     epsilon     time/iter
    23  2.2554e-01  4.0538e-03  3.6863e-03  3.8185e-03  2.2359e-02  4.5187e-02  0:15:56  477

 turbulent viscosity limited to viscosity ratio of 1.000000e+05 in 4074 cells 

 Reversed flow on 4385 faces (100.0% area) of pressure-outlet 24.

 Reversed flow on 1271 faces (61.2% area) of pressure-outlet 25.
    24  2.3625e-01  4.2537e-03  3.9031e-03  4.0061e-03  2.0130e-02  4.0687e-02  0:15:53  476

 turbulent viscosity limited to viscosity ratio of 1.000000e+05 in 9239 cells 

 Reversed flow on 4385 faces (100.0% area) of pressure-outlet 24.

 Reversed flow on 1289 faces (62.0% area) of pressure-outlet 25.
    25  2.4940e-01  4.2791e-03  4.0800e-03  4.0888e-03  1.7663e-02  3.4223e-02  0:15:51  475

 turbulent viscosity limited to viscosity ratio of 1.000000e+05 in 22833 cells 

 Reversed flow on 4385 faces (100.0% area) of pressure-outlet 24.

 Reversed flow on 1322 faces (63.6% area) of pressure-outlet 25.
    26  2.5892e-01  4.0851e-03  4.0291e-03  3.9693e-03  1.5490e-02  6.5593e-02  0:15:49  474

 turbulent viscosity limited to viscosity ratio of 1.000000e+05 in 7491 cells 

 Reversed flow on 4385 faces (100.0% area) of pressure-outlet 24.

 Reversed flow on 1361 faces (65.4% area) of pressure-outlet 25.
    27  2.6587e-01  3.9530e-03  3.9296e-03  4.0493e-03  3.4502e-02  5.9586e-02  0:15:47  473

 turbulent viscosity limited to viscosity ratio of 1.000000e+05 in 4284 cells 

 Reversed flow on 4385 faces (100.0% area) of pressure-outlet 24.

 Reversed flow on 1389 faces (66.8% area) of pressure-outlet 25.
    28  2.7199e-01  3.6541e-03  3.5842e-03  3.8009e-03  1.8325e-02  3.6129e-02  0:17:19  472

 turbulent viscosity limited to viscosity ratio of 1.000000e+05 in 454 cells 

 Reversed flow on 4385 faces (100.0% area) of pressure-outlet 24.

 Reversed flow on 1390 faces (67.0% area) of pressure-outlet 25.
    29  2.7817e-01  3.4820e-03  3.3658e-03  3.6775e-03  1.3491e-02  3.0271e-02  0:16:58  471
        Stabilizing pressure coupled to enhance linear solver robustness.

 turbulent viscosity limited to viscosity ratio of 1.000000e+05 in 161 cells 

 Reversed flow on 4385 faces (100.0% area) of pressure-outlet 24.

 Reversed flow on 1372 faces (66.1% area) of pressure-outlet 25.
    30  2.8421e-01  3.3319e-03  3.1760e-03  3.5266e-03  1.1759e-02  2.8384e-02  0:21:23  470

 turbulent viscosity limited to viscosity ratio of 1.000000e+05 in 320 cells 

 Reversed flow on 4385 faces (100.0% area) of pressure-outlet 24.

 Reversed flow on 1372 faces (66.1% area) of pressure-outlet 25.
    31  2.8461e-01  3.1036e-03  2.9652e-03  3.2862e-03  1.0815e-02  2.5774e-02  0:18:38  469

 turbulent viscosity limited to viscosity ratio of 1.000000e+05 in 101 cells 

 Reversed flow on 4385 faces (100.0% area) of pressure-outlet 24.

 Reversed flow on 1381 faces (66.6% area) of pressure-outlet 25.
    32  2.7978e-01  2.9005e-03  2.7999e-03  3.0681e-03  9.9268e-03  2.3295e-02  0:17:59  468

 turbulent viscosity limited to viscosity ratio of 1.000000e+05 in 44 cells 

 Reversed flow on 4385 faces (100.0% area) of pressure-outlet 24.

 Reversed flow on 1385 faces (66.8% area) of pressure-outlet 25.
    33  2.7382e-01  2.7109e-03  2.6730e-03  2.9077e-03  8.6778e-03  2.0816e-02  0:15:55  467

 turbulent viscosity limited to viscosity ratio of 1.000000e+05 in 31 cells 

 Reversed flow on 4385 faces (100.0% area) of pressure-outlet 24.

 Reversed flow on 1393 faces (67.1% area) of pressure-outlet 25.

  iter  continuity  x-velocity  y-velocity  z-velocity           k     epsilon     time/iter
    34  2.6619e-01  2.5410e-03  2.5746e-03  2.7676e-03  7.5704e-03  1.8558e-02  0:17:22  466

 turbulent viscosity limited to viscosity ratio of 1.000000e+05 in 10 cells 

 Reversed flow on 4385 faces (100.0% area) of pressure-outlet 24.

 Reversed flow on 1410 faces (67.9% area) of pressure-outlet 25.
    35  2.5954e-01  2.3960e-03  2.4807e-03  2.6393e-03  6.4674e-03  1.6233e-02  0:16:58  465

 Reversed flow on 4385 faces (100.0% area) of pressure-outlet 24.

 Reversed flow on 1431 faces (68.8% area) of pressure-outlet 25.
    36  2.5346e-01  2.2822e-03  2.3752e-03  2.5026e-03  5.5221e-03  1.4369e-02  0:16:38  464

 Reversed flow on 4385 faces (100.0% area) of pressure-outlet 24.

 Reversed flow on 1457 faces (70.0% area) of pressure-outlet 25.
    37  2.4764e-01  2.1894e-03  2.2468e-03  2.3635e-03  4.8118e-03  1.2950e-02  0:14:49  463

 turbulent viscosity limited to viscosity ratio of 1.000000e+05 in 1 cells 

 Reversed flow on 4385 faces (100.0% area) of pressure-outlet 24.

 Reversed flow on 1473 faces (70.7% area) of pressure-outlet 25.
    38  2.4169e-01  2.1123e-03  2.1092e-03  2.2286e-03  4.3272e-03  1.1734e-02  0:14:55  462

 turbulent viscosity limited to viscosity ratio of 1.000000e+05 in 7 cells 

 Reversed flow on 4385 faces (100.0% area) of pressure-outlet 24.

 Reversed flow on 1500 faces (71.9% area) of pressure-outlet 25.
    39  2.3553e-01  2.0466e-03  1.9839e-03  2.1022e-03  3.9589e-03  1.0512e-02  0:13:26  461

 turbulent viscosity limited to viscosity ratio of 1.000000e+05 in 1 cells 

 Reversed flow on 4385 faces (100.0% area) of pressure-outlet 24.

 Reversed flow on 1523 faces (73.0% area) of pressure-outlet 25.
    40  2.2985e-01  1.9769e-03  1.8858e-03  1.9802e-03  3.6601e-03  9.4206e-03  0:13:48  460

 Reversed flow on 4385 faces (100.0% area) of pressure-outlet 24.

 Reversed flow on 1542 faces (73.8% area) of pressure-outlet 25.
    41  2.2479e-01  1.9067e-03  1.8093e-03  1.8667e-03  3.4091e-03  8.6265e-03  0:14:04  459

 Reversed flow on 4385 faces (100.0% area) of pressure-outlet 24.

 Reversed flow on 1557 faces (74.5% area) of pressure-outlet 25.
    42  2.2021e-01  1.8478e-03  1.7520e-03  1.7739e-03  3.2040e-03  8.0559e-03  0:14:17  458

 Reversed flow on 4385 faces (100.0% area) of pressure-outlet 24.

 Reversed flow on 1567 faces (75.0% area) of pressure-outlet 25.
    43  2.1578e-01  1.7988e-03  1.7067e-03  1.7012e-03  3.0060e-03  7.3566e-03  0:14:27  457

 Reversed flow on 4385 faces (100.0% area) of pressure-outlet 24.

 Reversed flow on 1581 faces (75.6% area) of pressure-outlet 25.
    44  2.1254e-01  1.7583e-03  1.6698e-03  1.6460e-03  2.8482e-03  6.9720e-03  0:13:03  456

 Reversed flow on 4385 faces (100.0% area) of pressure-outlet 24.

 Reversed flow on 1584 faces (75.7% area) of pressure-outlet 25.

  iter  continuity  x-velocity  y-velocity  z-velocity           k     epsilon     time/iter
    45  2.1014e-01  1.7128e-03  1.6428e-03  1.6082e-03  2.7205e-03  6.7365e-03  0:13:27  455

 Reversed flow on 4385 faces (100.0% area) of pressure-outlet 24.

 Reversed flow on 1587 faces (75.8% area) of pressure-outlet 25.
    46  2.0763e-01  1.6697e-03  1.6207e-03  1.5808e-03  2.5838e-03  6.5715e-03  0:13:46  454

 Reversed flow on 4385 faces (100.0% area) of pressure-outlet 24.

 Reversed flow on 1583 faces (75.6% area) of pressure-outlet 25.
    47  2.0441e-01  1.6261e-03  1.5946e-03  1.5531e-03  2.4842e-03  6.1244e-03  0:12:30  453

 Reversed flow on 4385 faces (100.0% area) of pressure-outlet 24.

 Reversed flow on 1572 faces (75.0% area) of pressure-outlet 25.
    48  2.0069e-01  1.5928e-03  1.5605e-03  1.5259e-03  2.4150e-03  6.0218e-03  0:12:59  452

 Reversed flow on 4385 faces (100.0% area) of pressure-outlet 24.

 Reversed flow on 1560 faces (74.5% area) of pressure-outlet 25.
    49  1.9689e-01  1.5614e-03  1.5296e-03  1.4958e-03  2.4248e-03  5.9628e-03  0:13:23  451

 Reversed flow on 4385 faces (100.0% area) of pressure-outlet 24.

 Reversed flow on 1549 faces (74.0% area) of pressure-outlet 25.
    50  1.9420e-01  1.5391e-03  1.4967e-03  1.4710e-03  2.4142e-03  6.1208e-03  0:13:41  450

 Reversed flow on 4385 faces (100.0% area) of pressure-outlet 24.

 Reversed flow on 1537 faces (73.5% area) of pressure-outlet 25.
    51  1.9292e-01  1.5083e-03  1.4741e-03  1.4507e-03  2.4071e-03  5.7442e-03  0:12:25  449

 Reversed flow on 4385 faces (100.0% area) of pressure-outlet 24.

 Reversed flow on 1533 faces (73.4% area) of pressure-outlet 25.
    52  1.9275e-01  1.4872e-03  1.4522e-03  1.4354e-03  2.4012e-03  5.7987e-03  0:11:24  448

 Reversed flow on 4385 faces (100.0% area) of pressure-outlet 24.

 Reversed flow on 1524 faces (72.9% area) of pressure-outlet 25.
    53  1.9376e-01  1.4610e-03  1.4430e-03  1.4259e-03  2.3892e-03  5.4749e-03  0:12:05  447

 turbulent viscosity limited to viscosity ratio of 1.000000e+05 in 1 cells 

 Reversed flow on 4385 faces (100.0% area) of pressure-outlet 24.

 Reversed flow on 1521 faces (72.8% area) of pressure-outlet 25.
    54  1.9509e-01  1.4518e-03  1.4314e-03  1.4174e-03  2.4100e-03  5.8129e-03  0:11:08  446

 Reversed flow on 4385 faces (100.0% area) of pressure-outlet 24.

 Reversed flow on 1513 faces (72.4% area) of pressure-outlet 25.
    55  1.9691e-01  1.4394e-03  1.4318e-03  1.4153e-03  2.3553e-03  5.4175e-03  0:11:51  445

 Reversed flow on 4385 faces (100.0% area) of pressure-outlet 24.

 Reversed flow on 1500 faces (71.7% area) of pressure-outlet 25.

  iter  continuity  x-velocity  y-velocity  z-velocity           k     epsilon     time/iter
    56  1.9938e-01  1.4485e-03  1.4253e-03  1.4158e-03  2.4020e-03  5.7665e-03  0:12:25  444

 Reversed flow on 4385 faces (100.0% area) of pressure-outlet 24.

 Reversed flow on 1510 faces (72.2% area) of pressure-outlet 25.
    57  2.0257e-01  1.4564e-03  1.4273e-03  1.4214e-03  2.3641e-03  5.5427e-03  0:12:52  443

 Reversed flow on 4385 faces (100.0% area) of pressure-outlet 24.

 Reversed flow on 1504 faces (71.9% area) of pressure-outlet 25.
    58  2.0649e-01  1.4782e-03  1.4248e-03  1.4269e-03  2.4458e-03  5.9728e-03  0:13:13  442

 Reversed flow on 4385 faces (100.0% area) of pressure-outlet 24.

 Reversed flow on 1499 faces (71.7% area) of pressure-outlet 25.
    59  2.1009e-01  1.4960e-03  1.4331e-03  1.4354e-03  2.4316e-03  5.9054e-03  0:13:29  441

 turbulent viscosity limited to viscosity ratio of 1.000000e+05 in 1 cells 

 Reversed flow on 4385 faces (100.0% area) of pressure-outlet 24.

 Reversed flow on 1496 faces (71.6% area) of pressure-outlet 25.
    60  2.1436e-01  1.5218e-03  1.4510e-03  1.4498e-03  2.5493e-03  6.2582e-03  0:13:42  440

 Reversed flow on 4385 faces (100.0% area) of pressure-outlet 24.

 Reversed flow on 1501 faces (71.8% area) of pressure-outlet 25.
    61  2.1914e-01  1.5498e-03  1.4834e-03  1.4748e-03  2.5801e-03  6.2319e-03  0:12:24  439

 turbulent viscosity limited to viscosity ratio of 1.000000e+05 in 1 cells 

 Reversed flow on 4385 faces (100.0% area) of pressure-outlet 24.

 Reversed flow on 1502 faces (71.9% area) of pressure-outlet 25.
    62  2.2376e-01  1.5796e-03  1.5216e-03  1.5078e-03  2.7379e-03  6.6551e-03  0:12:49  438

 turbulent viscosity limited to viscosity ratio of 1.000000e+05 in 3 cells 

 Reversed flow on 4385 faces (100.0% area) of pressure-outlet 24.

 Reversed flow on 1507 faces (72.0% area) of pressure-outlet 25.
    63  2.2753e-01  1.6172e-03  1.5696e-03  1.5428e-03  2.7802e-03  6.8480e-03  0:13:09  437

 turbulent viscosity limited to viscosity ratio of 1.000000e+05 in 4 cells 

 Reversed flow on 4385 faces (100.0% area) of pressure-outlet 24.

 Reversed flow on 1513 faces (72.3% area) of pressure-outlet 25.
    64  2.3204e-01  1.6457e-03  1.6219e-03  1.5786e-03  2.8695e-03  7.0415e-03  0:13:24  436

 turbulent viscosity limited to viscosity ratio of 1.000000e+05 in 2 cells 

 Reversed flow on 4385 faces (100.0% area) of pressure-outlet 24.

 Reversed flow on 1513 faces (72.4% area) of pressure-outlet 25.
    65  2.3611e-01  1.6772e-03  1.6650e-03  1.6097e-03  2.8943e-03  6.9500e-03  0:13:36  435

 turbulent viscosity limited to viscosity ratio of 1.000000e+05 in 5 cells 

 Reversed flow on 4385 faces (100.0% area) of pressure-outlet 24.

 Reversed flow on 1520 faces (72.7% area) of pressure-outlet 25.
    66  2.4047e-01  1.6973e-03  1.7006e-03  1.6387e-03  2.9390e-03  7.0885e-03  0:13:45  434

 turbulent viscosity limited to viscosity ratio of 1.000000e+05 in 23 cells 

 Reversed flow on 4385 faces (100.0% area) of pressure-outlet 24.

 Reversed flow on 1526 faces (72.9% area) of pressure-outlet 25.

  iter  continuity  x-velocity  y-velocity  z-velocity           k     epsilon     time/iter
    67  2.4522e-01  1.7324e-03  1.7196e-03  1.6655e-03  2.9873e-03  7.4987e-03  0:15:18  433

 turbulent viscosity limited to viscosity ratio of 1.000000e+05 in 30 cells 

 Reversed flow on 4385 faces (100.0% area) of pressure-outlet 24.

 Reversed flow on 1530 faces (73.1% area) of pressure-outlet 25.
    68  2.4951e-01  1.7521e-03  1.7411e-03  1.6922e-03  2.9958e-03  7.5347e-03  0:15:05  432

 turbulent viscosity limited to viscosity ratio of 1.000000e+05 in 26 cells 

 Reversed flow on 4385 faces (100.0% area) of pressure-outlet 24.

 Reversed flow on 1538 faces (73.6% area) of pressure-outlet 25.
    69  2.5276e-01  1.7804e-03  1.7559e-03  1.7190e-03  3.0828e-03  8.1072e-03  0:13:29  431

 turbulent viscosity limited to viscosity ratio of 1.000000e+05 in 23 cells 

 Reversed flow on 4385 faces (100.0% area) of pressure-outlet 24.

 Reversed flow on 1543 faces (73.7% area) of pressure-outlet 25.
    70  2.5559e-01  1.7974e-03  1.7846e-03  1.7482e-03  3.1081e-03  8.2685e-03  0:13:38  430

 turbulent viscosity limited to viscosity ratio of 1.000000e+05 in 4 cells 

 Reversed flow on 4385 faces (100.0% area) of pressure-outlet 24.

 Reversed flow on 1550 faces (74.1% area) of pressure-outlet 25.
    71  2.5772e-01  1.8223e-03  1.8076e-03  1.7735e-03  3.2159e-03  8.8735e-03  0:13:44  429

 turbulent viscosity limited to viscosity ratio of 1.000000e+05 in 3 cells 

 Reversed flow on 4385 faces (100.0% area) of pressure-outlet 24.

 Reversed flow on 1549 faces (74.1% area) of pressure-outlet 25.
    72  2.5922e-01  1.8351e-03  1.8474e-03  1.8037e-03  3.1813e-03  8.7710e-03  0:13:49  428

 Reversed flow on 4379 faces (99.9% area) of pressure-outlet 24.

 Reversed flow on 1550 faces (74.1% area) of pressure-outlet 25.
    73  2.5975e-01  1.8497e-03  1.8736e-03  1.8298e-03  3.2199e-03  8.9850e-03  0:13:52  427

 Reversed flow on 4226 faces (96.9% area) of pressure-outlet 24.

 Reversed flow on 1547 faces (74.0% area) of pressure-outlet 25.
    74  2.5912e-01  1.8660e-03  1.9025e-03  1.8556e-03  3.1629e-03  8.6840e-03  0:13:55  426

 Reversed flow on 4083 faces (93.5% area) of pressure-outlet 24.

 Reversed flow on 1547 faces (74.0% area) of pressure-outlet 25.
    75  2.5813e-01  1.8818e-03  1.9134e-03  1.8842e-03  3.2022e-03  8.4499e-03  0:13:56  425

 turbulent viscosity limited to viscosity ratio of 1.000000e+05 in 2 cells 

 Reversed flow on 3990 faces (91.3% area) of pressure-outlet 24.

 Reversed flow on 1551 faces (74.2% area) of pressure-outlet 25.
    76  2.5683e-01  1.8934e-03  1.9189e-03  1.9081e-03  3.1833e-03  8.3772e-03  0:12:32  424

 turbulent viscosity limited to viscosity ratio of 1.000000e+05 in 2 cells 

 Reversed flow on 3918 faces (89.5% area) of pressure-outlet 24.

 Reversed flow on 1559 faces (74.5% area) of pressure-outlet 25.
    77  2.5696e-01  1.8951e-03  1.9166e-03  1.9231e-03  3.2410e-03  8.5005e-03  0:12:50  423

 turbulent viscosity limited to viscosity ratio of 1.000000e+05 in 1 cells 

 Reversed flow on 3881 faces (88.5% area) of pressure-outlet 24.

 Reversed flow on 1560 faces (74.6% area) of pressure-outlet 25.

  iter  continuity  x-velocity  y-velocity  z-velocity           k     epsilon     time/iter
    78  2.5815e-01  1.8952e-03  1.9077e-03  1.9284e-03  3.2180e-03  8.5543e-03  0:13:03  422

 Reversed flow on 3867 faces (88.1% area) of pressure-outlet 24.

 Reversed flow on 1560 faces (74.5% area) of pressure-outlet 25.
    79  2.6020e-01  1.8862e-03  1.9043e-03  1.9236e-03  3.2154e-03  8.3821e-03  0:13:13  421

 Reversed flow on 3914 faces (88.6% area) of pressure-outlet 24.

 Reversed flow on 1559 faces (74.5% area) of pressure-outlet 25.
    80  2.6184e-01  1.8838e-03  1.8944e-03  1.9131e-03  3.2450e-03  8.4618e-03  0:11:57  420

 Reversed flow on 3981 faces (89.6% area) of pressure-outlet 24.

 Reversed flow on 1567 faces (74.8% area) of pressure-outlet 25.
    81  2.6383e-01  1.8714e-03  1.8948e-03  1.9028e-03  3.2278e-03  8.4602e-03  0:12:20  419

 Reversed flow on 3997 faces (90.0% area) of pressure-outlet 24.

 Reversed flow on 1569 faces (74.9% area) of pressure-outlet 25.
    82  2.6514e-01  1.8791e-03  1.8990e-03  1.8936e-03  3.2956e-03  8.9423e-03  0:12:38  418

 Reversed flow on 4010 faces (90.2% area) of pressure-outlet 24.

 Reversed flow on 1573 faces (75.1% area) of pressure-outlet 25.
    83  2.6645e-01  1.8876e-03  1.9311e-03  1.8981e-03  3.3071e-03  8.7484e-03  0:14:15  417

 Reversed flow on 4019 faces (90.4% area) of pressure-outlet 24.

 Reversed flow on 1576 faces (75.2% area) of pressure-outlet 25.
    84  2.6817e-01  1.9142e-03  1.9653e-03  1.9140e-03  3.4319e-03  8.7700e-03  0:12:46  416

 Reversed flow on 4032 faces (90.6% area) of pressure-outlet 24.

 Reversed flow on 1576 faces (75.2% area) of pressure-outlet 25.
    85  2.7037e-01  1.9379e-03  2.0033e-03  1.9366e-03  3.4781e-03  9.0466e-03  0:12:57  415

 Reversed flow on 4043 faces (90.8% area) of pressure-outlet 24.

 Reversed flow on 1575 faces (75.1% area) of pressure-outlet 25.
    86  2.7335e-01  1.9615e-03  2.0269e-03  1.9613e-03  3.6136e-03  9.5647e-03  0:13:06  414

 Reversed flow on 4053 faces (91.0% area) of pressure-outlet 24.

 Reversed flow on 1575 faces (75.1% area) of pressure-outlet 25.
    87  2.7601e-01  1.9703e-03  2.0400e-03  1.9930e-03  3.6505e-03  9.7136e-03  0:11:50  413

 Reversed flow on 4060 faces (91.3% area) of pressure-outlet 24.

 Reversed flow on 1570 faces (74.9% area) of pressure-outlet 25.
    88  2.7856e-01  1.9847e-03  2.0472e-03  2.0233e-03  3.7912e-03  1.0040e-02  0:12:11  412

 Reversed flow on 4065 faces (91.5% area) of pressure-outlet 24.

 Reversed flow on 1569 faces (74.8% area) of pressure-outlet 25.

  iter  continuity  x-velocity  y-velocity  z-velocity           k     epsilon     time/iter
    89  2.8027e-01  1.9927e-03  2.0493e-03  2.0613e-03  3.8048e-03  1.0095e-02  0:12:28  411

 Reversed flow on 4073 faces (91.8% area) of pressure-outlet 24.

 Reversed flow on 1567 faces (74.7% area) of pressure-outlet 25.
    90  2.8193e-01  2.0065e-03  2.0480e-03  2.1071e-03  3.8285e-03  9.9797e-03  0:12:41  410

 Reversed flow on 4070 faces (91.8% area) of pressure-outlet 24.

 Reversed flow on 1569 faces (74.8% area) of pressure-outlet 25.
    91  2.8394e-01  2.0268e-03  2.0375e-03  2.1433e-03  3.7447e-03  9.6491e-03  0:12:51  409

 Reversed flow on 4042 faces (91.1% area) of pressure-outlet 24.

 Reversed flow on 1569 faces (74.8% area) of pressure-outlet 25.
    92  2.8702e-01  2.0392e-03  2.0256e-03  2.1609e-03  3.6487e-03  9.1434e-03  0:11:37  408

 Reversed flow on 3991 faces (89.9% area) of pressure-outlet 24.

 Reversed flow on 1569 faces (74.9% area) of pressure-outlet 25.
    93  2.8861e-01  2.0349e-03  2.0020e-03  2.1486e-03  3.5613e-03  8.8217e-03  0:11:59  407

 Reversed flow on 3891 faces (88.0% area) of pressure-outlet 24.

 Reversed flow on 1567 faces (74.8% area) of pressure-outlet 25.
    94  2.8825e-01  2.0082e-03  1.9798e-03  2.1212e-03  3.4912e-03  8.5532e-03  0:10:55  406

 Reversed flow on 3811 faces (86.2% area) of pressure-outlet 24.

 Reversed flow on 1566 faces (74.7% area) of pressure-outlet 25.
    95  2.8673e-01  1.9730e-03  1.9538e-03  2.0811e-03  3.4438e-03  8.4197e-03  0:11:25  405

 Reversed flow on 3755 faces (84.7% area) of pressure-outlet 24.

 Reversed flow on 1565 faces (74.7% area) of pressure-outlet 25.
    96  2.8527e-01  1.9284e-03  1.9351e-03  2.0341e-03  3.3783e-03  7.9848e-03  0:10:27  404

 Reversed flow on 3735 faces (84.3% area) of pressure-outlet 24.

 Reversed flow on 1566 faces (74.8% area) of pressure-outlet 25.
    97  2.8357e-01  1.8889e-03  1.9078e-03  1.9923e-03  3.3749e-03  7.8775e-03  0:11:02  403

 Reversed flow on 3751 faces (84.7% area) of pressure-outlet 24.

 Reversed flow on 1570 faces (75.0% area) of pressure-outlet 25.
    98  2.8105e-01  1.8505e-03  1.8819e-03  1.9575e-03  3.3288e-03  7.4395e-03  0:11:29  402

 Reversed flow on 3801 faces (85.9% area) of pressure-outlet 24.

 Reversed flow on 1572 faces (75.1% area) of pressure-outlet 25.
    99  2.7828e-01  1.8282e-03  1.8488e-03  1.9272e-03  3.3447e-03  7.4459e-03  0:10:30  401

 Reversed flow on 3859 faces (87.4% area) of pressure-outlet 24.

 Reversed flow on 1575 faces (75.2% area) of pressure-outlet 25.

  iter  continuity  x-velocity  y-velocity  z-velocity           k     epsilon     time/iter
   100  2.7712e-01  1.8110e-03  1.8218e-03  1.9046e-03  3.2906e-03  7.0937e-03  0:11:03  400

 turbulent viscosity limited to viscosity ratio of 1.000000e+05 in 1 cells 

 Reversed flow on 3961 faces (89.9% area) of pressure-outlet 24.

 Reversed flow on 1574 faces (75.2% area) of pressure-outlet 25.
   101  2.7655e-01  1.8001e-03  1.7929e-03  1.8803e-03  3.2910e-03  7.0222e-03  0:19:27  399

 turbulent viscosity limited to viscosity ratio of 1.000000e+05 in 3 cells 

 Reversed flow on 4022 faces (91.4% area) of pressure-outlet 24.

 Reversed flow on 1575 faces (75.2% area) of pressure-outlet 25.
   102  2.7606e-01  1.7746e-03  1.7679e-03  1.8444e-03  3.1939e-03  6.6472e-03  0:18:11  398

 turbulent viscosity limited to viscosity ratio of 1.000000e+05 in 1 cells 

 Reversed flow on 4089 faces (92.8% area) of pressure-outlet 24.

 Reversed flow on 1571 faces (75.0% area) of pressure-outlet 25.
   103  2.7390e-01  1.7347e-03  1.7370e-03  1.7974e-03  3.1425e-03  6.7516e-03  0:15:50  397

 Reversed flow on 4160 faces (94.3% area) of pressure-outlet 24.

 Reversed flow on 1567 faces (74.9% area) of pressure-outlet 25.
   104  2.7135e-01  1.6813e-03  1.7017e-03  1.7413e-03  3.0228e-03  6.5108e-03  0:13:57  396

 Reversed flow on 4206 faces (95.3% area) of pressure-outlet 24.

 Reversed flow on 1563 faces (74.7% area) of pressure-outlet 25.
   105  2.6712e-01  1.6310e-03  1.6589e-03  1.6847e-03  2.9917e-03  6.4848e-03  0:12:27  395

 Reversed flow on 4213 faces (95.4% area) of pressure-outlet 24.

 Reversed flow on 1564 faces (74.8% area) of pressure-outlet 25.
   106  2.6270e-01  1.5852e-03  1.6185e-03  1.6372e-03  2.9329e-03  6.2457e-03  0:12:34  394

 Reversed flow on 4191 faces (94.9% area) of pressure-outlet 24.

 Reversed flow on 1560 faces (74.6% area) of pressure-outlet 25.
   107  2.5853e-01  1.5532e-03  1.5859e-03  1.6037e-03  2.9462e-03  6.3179e-03  0:12:39  393

 Reversed flow on 4122 faces (93.1% area) of pressure-outlet 24.

 Reversed flow on 1562 faces (74.7% area) of pressure-outlet 25.
   108  2.5539e-01  1.5294e-03  1.5647e-03  1.5823e-03  2.9232e-03  6.1692e-03  0:12:42  392

 Reversed flow on 4012 faces (90.4% area) of pressure-outlet 24.

 Reversed flow on 1566 faces (74.9% area) of pressure-outlet 25.
   109  2.5390e-01  1.5132e-03  1.5476e-03  1.5748e-03  2.9703e-03  6.3863e-03  0:12:45  391

 Reversed flow on 3923 faces (88.2% area) of pressure-outlet 24.

 Reversed flow on 1568 faces (75.0% area) of pressure-outlet 25.
   110  2.5287e-01  1.5044e-03  1.5365e-03  1.5760e-03  2.9559e-03  6.4557e-03  0:12:46  390

 Reversed flow on 3870 faces (87.0% area) of pressure-outlet 24.

 Reversed flow on 1574 faces (75.2% area) of pressure-outlet 25.

  iter  continuity  x-velocity  y-velocity  z-velocity           k     epsilon     time/iter
   111  2.5308e-01  1.5113e-03  1.5357e-03  1.5871e-03  3.0000e-03  6.8016e-03  0:12:47  389

 Reversed flow on 3846 faces (86.3% area) of pressure-outlet 24.

 Reversed flow on 1578 faces (75.4% area) of pressure-outlet 25.
   112  2.5342e-01  1.5358e-03  1.5507e-03  1.6067e-03  3.0910e-03  7.2303e-03  0:12:47  388

 Reversed flow on 3834 faces (85.9% area) of pressure-outlet 24.

 Reversed flow on 1590 faces (75.9% area) of pressure-outlet 25.
   113  2.5464e-01  1.5815e-03  1.5898e-03  1.6336e-03  3.2268e-03  7.8177e-03  0:12:47  387

 Reversed flow on 3817 faces (85.5% area) of pressure-outlet 24.

 Reversed flow on 1594 faces (76.0% area) of pressure-outlet 25.
   114  2.5687e-01  1.6483e-03  1.6504e-03  1.6756e-03  3.3696e-03  8.4610e-03  0:11:29  386

 Reversed flow on 3712 faces (83.7% area) of pressure-outlet 24.

 Reversed flow on 1604 faces (76.5% area) of pressure-outlet 25.
   115  2.6048e-01  1.7389e-03  1.7362e-03  1.7369e-03  3.5190e-03  9.1244e-03  0:10:27  385

 Reversed flow on 3581 faces (81.3% area) of pressure-outlet 24.

 Reversed flow on 1608 faces (76.7% area) of pressure-outlet 25.
   116  2.6533e-01  1.8551e-03  1.8417e-03  1.8205e-03  3.6433e-03  9.7355e-03  0:09:37  384

 Reversed flow on 3499 faces (79.6% area) of pressure-outlet 24.

 Reversed flow on 1618 faces (77.1% area) of pressure-outlet 25.
   117  2.7133e-01  1.9862e-03  1.9520e-03  1.9255e-03  3.7297e-03  1.0244e-02  0:10:14  383

 Reversed flow on 3424 faces (78.0% area) of pressure-outlet 24.

 Reversed flow on 1624 faces (77.4% area) of pressure-outlet 25.
   118  2.7693e-01  2.1101e-03  2.0559e-03  2.0339e-03  3.7911e-03  1.0676e-02  0:09:26  382

 Reversed flow on 3377 faces (77.1% area) of pressure-outlet 24.

 Reversed flow on 1624 faces (77.3% area) of pressure-outlet 25.
   119  2.8150e-01  2.2159e-03  2.1456e-03  2.1393e-03  3.8002e-03  1.0916e-02  0:11:20  381

 Reversed flow on 3360 faces (76.6% area) of pressure-outlet 24.

 Reversed flow on 1624 faces (77.3% area) of pressure-outlet 25.
   120  2.8470e-01  2.3051e-03  2.2155e-03  2.2332e-03  3.7767e-03  1.0900e-02  0:10:19  380

 Reversed flow on 3333 faces (76.1% area) of pressure-outlet 24.

 Reversed flow on 1621 faces (77.2% area) of pressure-outlet 25.
   121  2.8752e-01  2.3715e-03  2.2700e-03  2.3129e-03  3.7573e-03  1.0875e-02  0:10:45  379

 Reversed flow on 3337 faces (76.3% area) of pressure-outlet 24.

 Reversed flow on 1620 faces (77.1% area) of pressure-outlet 25.

  iter  continuity  x-velocity  y-velocity  z-velocity           k     epsilon     time/iter
   122  2.8992e-01  2.4112e-03  2.3158e-03  2.3796e-03  3.7213e-03  1.0827e-02  0:11:06  378

 Reversed flow on 3337 faces (76.4% area) of pressure-outlet 24.

 Reversed flow on 1615 faces (76.9% area) of pressure-outlet 25.
   123  2.9124e-01  2.4278e-03  2.3479e-03  2.4221e-03  3.6790e-03  1.0405e-02  0:11:22  377

 Reversed flow on 3335 faces (76.2% area) of pressure-outlet 24.

 Reversed flow on 1611 faces (76.7% area) of pressure-outlet 25.
   124  2.9180e-01  2.4293e-03  2.3687e-03  2.4479e-03  3.6721e-03  1.0223e-02  0:10:20  376

 Reversed flow on 3348 faces (76.5% area) of pressure-outlet 24.

 Reversed flow on 1611 faces (76.7% area) of pressure-outlet 25.
   125  2.9223e-01  2.4304e-03  2.3858e-03  2.4580e-03  3.6840e-03  1.0420e-02  0:09:29  375

 Reversed flow on 3371 faces (77.1% area) of pressure-outlet 24.

 Reversed flow on 1608 faces (76.5% area) of pressure-outlet 25.
   126  2.9312e-01  2.4213e-03  2.3905e-03  2.4616e-03  3.6815e-03  1.0149e-02  0:10:04  374

 Reversed flow on 3445 faces (78.8% area) of pressure-outlet 24.

 Reversed flow on 1610 faces (76.6% area) of pressure-outlet 25.
   127  2.9463e-01  2.4086e-03  2.3902e-03  2.4571e-03  3.6697e-03  9.8401e-03  0:09:16  373

 Reversed flow on 3524 faces (80.4% area) of pressure-outlet 24.

 Reversed flow on 1608 faces (76.5% area) of pressure-outlet 25.
   128  2.9730e-01  2.3918e-03  2.3908e-03  2.4576e-03  3.6471e-03  9.6619e-03  0:09:53  372

 Reversed flow on 3570 faces (81.4% area) of pressure-outlet 24.

 Reversed flow on 1612 faces (76.7% area) of pressure-outlet 25.
   129  3.0173e-01  2.3785e-03  2.3860e-03  2.4465e-03  3.6669e-03  9.9223e-03  0:10:21  371

 Reversed flow on 3613 faces (82.3% area) of pressure-outlet 24.

 Reversed flow on 1613 faces (76.8% area) of pressure-outlet 25.
   130  3.0553e-01  2.3540e-03  2.3697e-03  2.4276e-03  3.5980e-03  9.5454e-03  0:09:30  370

 Reversed flow on 3663 faces (83.4% area) of pressure-outlet 24.

 Reversed flow on 1613 faces (76.8% area) of pressure-outlet 25.
   131  3.0889e-01  2.3263e-03  2.3370e-03  2.3962e-03  3.5378e-03  9.7552e-03  0:10:02  369

 Reversed flow on 3718 faces (84.6% area) of pressure-outlet 24.

 Reversed flow on 1615 faces (76.9% area) of pressure-outlet 25.
   132  3.1006e-01  2.2801e-03  2.2972e-03  2.3513e-03  3.4246e-03  9.3683e-03  0:10:28  368

 Reversed flow on 3761 faces (85.5% area) of pressure-outlet 24.

 Reversed flow on 1619 faces (77.0% area) of pressure-outlet 25.

  iter  continuity  x-velocity  y-velocity  z-velocity           k     epsilon     time/iter
   133  3.0970e-01  2.2351e-03  2.2501e-03  2.2958e-03  3.4067e-03  9.8401e-03  0:09:34  367

 Reversed flow on 3811 faces (87.0% area) of pressure-outlet 24.

 Reversed flow on 1616 faces (76.9% area) of pressure-outlet 25.
   134  3.0796e-01  2.1767e-03  2.1981e-03  2.2329e-03  3.2288e-03  9.0469e-03  0:10:04  366

 Reversed flow on 3879 faces (88.6% area) of pressure-outlet 24.

 Reversed flow on 1610 faces (76.7% area) of pressure-outlet 25.
   135  3.0511e-01  2.1154e-03  2.1338e-03  2.1628e-03  3.1759e-03  9.0946e-03  0:10:28  365

 Reversed flow on 3909 faces (89.4% area) of pressure-outlet 24.

 Reversed flow on 1602 faces (76.4% area) of pressure-outlet 25.
   136  3.0079e-01  2.0325e-03  2.0632e-03  2.0798e-03  2.9769e-03  8.5969e-03  0:09:34  364

 Reversed flow on 3954 faces (90.5% area) of pressure-outlet 24.

 Reversed flow on 1599 faces (76.2% area) of pressure-outlet 25.
   137  2.9507e-01  1.9559e-03  1.9868e-03  1.9886e-03  2.9469e-03  8.8725e-03  0:10:03  363

 Reversed flow on 3993 faces (91.5% area) of pressure-outlet 24.

 Reversed flow on 1595 faces (76.1% area) of pressure-outlet 25.
   138  2.8789e-01  1.8741e-03  1.9115e-03  1.8990e-03  2.7461e-03  8.1998e-03  0:10:26  362

 Reversed flow on 4037 faces (92.5% area) of pressure-outlet 24.

 Reversed flow on 1589 faces (75.8% area) of pressure-outlet 25.
   139  2.8164e-01  1.8110e-03  1.8476e-03  1.8193e-03  2.7475e-03  7.9631e-03  0:09:32  361

 Reversed flow on 4063 faces (93.1% area) of pressure-outlet 24.

 Reversed flow on 1581 faces (75.4% area) of pressure-outlet 25.
   140  2.7578e-01  1.7577e-03  1.7897e-03  1.7545e-03  2.5974e-03  7.7760e-03  0:11:12  360

 Reversed flow on 4104 faces (94.1% area) of pressure-outlet 24.

 Reversed flow on 1579 faces (75.3% area) of pressure-outlet 25.
   141  2.7162e-01  1.7130e-03  1.7275e-03  1.7005e-03  2.6165e-03  7.7989e-03  0:11:20  359

 Reversed flow on 4133 faces (94.7% area) of pressure-outlet 24.

 Reversed flow on 1580 faces (75.4% area) of pressure-outlet 25.
   142  2.6792e-01  1.6733e-03  1.6739e-03  1.6563e-03  2.5175e-03  7.8201e-03  0:11:25  358

 turbulent viscosity limited to viscosity ratio of 1.000000e+05 in 8 cells 

 Reversed flow on 4145 faces (95.1% area) of pressure-outlet 24.

 Reversed flow on 1574 faces (75.1% area) of pressure-outlet 25.
   143  2.6565e-01  1.6384e-03  1.6423e-03  1.6264e-03  2.5188e-03  7.6265e-03  0:11:30  357

 turbulent viscosity limited to viscosity ratio of 1.000000e+05 in 19 cells 

 Reversed flow on 4164 faces (95.6% area) of pressure-outlet 24.

 Reversed flow on 1571 faces (74.9% area) of pressure-outlet 25.

  iter  continuity  x-velocity  y-velocity  z-velocity           k     epsilon     time/iter
   144  2.6288e-01  1.6211e-03  1.6217e-03  1.6045e-03  2.4840e-03  7.7956e-03  0:10:21  356

 turbulent viscosity limited to viscosity ratio of 1.000000e+05 in 2 cells 

 Reversed flow on 4173 faces (95.8% area) of pressure-outlet 24.

 Reversed flow on 1569 faces (74.8% area) of pressure-outlet 25.
   145  2.6121e-01  1.6014e-03  1.6180e-03  1.5880e-03  2.4557e-03  7.6204e-03  0:10:38  355

 Reversed flow on 4181 faces (96.1% area) of pressure-outlet 24.

 Reversed flow on 1569 faces (74.8% area) of pressure-outlet 25.
   146  2.6015e-01  1.6030e-03  1.6038e-03  1.5673e-03  2.4126e-03  7.5702e-03  0:10:50  354

 Reversed flow on 4181 faces (96.1% area) of pressure-outlet 24.

 Reversed flow on 1572 faces (75.0% area) of pressure-outlet 25.
   147  2.5912e-01  1.5902e-03  1.5957e-03  1.5485e-03  2.3167e-03  7.0399e-03  0:09:49  353

 Reversed flow on 4184 faces (96.2% area) of pressure-outlet 24.

 Reversed flow on 1574 faces (75.1% area) of pressure-outlet 25.
   148  2.5745e-01  1.5948e-03  1.5745e-03  1.5286e-03  2.3255e-03  7.3311e-03  0:10:11  352

 turbulent viscosity limited to viscosity ratio of 1.000000e+05 in 2 cells 

 Reversed flow on 4189 faces (96.4% area) of pressure-outlet 24.

 Reversed flow on 1578 faces (75.3% area) of pressure-outlet 25.
   149  2.5593e-01  1.5851e-03  1.5691e-03  1.5124e-03  2.2417e-03  6.9798e-03  0:10:28  351

 turbulent viscosity limited to viscosity ratio of 1.000000e+05 in 6 cells 

 Reversed flow on 4203 faces (96.7% area) of pressure-outlet 24.

 Reversed flow on 1574 faces (75.1% area) of pressure-outlet 25.
   150  2.5351e-01  1.5900e-03  1.5588e-03  1.4986e-03  2.3198e-03  6.9668e-03  0:10:41  350

 turbulent viscosity limited to viscosity ratio of 1.000000e+05 in 6 cells 

 Reversed flow on 4209 faces (96.9% area) of pressure-outlet 24.

 Reversed flow on 1580 faces (75.4% area) of pressure-outlet 25.
   151  2.5125e-01  1.5771e-03  1.5582e-03  1.4916e-03  2.2462e-03  6.5611e-03  0:10:51  349

 turbulent viscosity limited to viscosity ratio of 1.000000e+05 in 6 cells 

 Reversed flow on 4219 faces (97.1% area) of pressure-outlet 24.

 Reversed flow on 1580 faces (75.4% area) of pressure-outlet 25.
   152  2.4988e-01  1.5782e-03  1.5543e-03  1.4902e-03  2.3653e-03  6.9639e-03  0:10:58  348

 turbulent viscosity limited to viscosity ratio of 1.000000e+05 in 6 cells 

 Reversed flow on 4224 faces (97.2% area) of pressure-outlet 24.

 Reversed flow on 1579 faces (75.4% area) of pressure-outlet 25.
   153  2.4915e-01  1.5800e-03  1.5587e-03  1.4917e-03  2.3308e-03  6.7645e-03  0:11:04  347

 turbulent viscosity limited to viscosity ratio of 1.000000e+05 in 4 cells 

 Reversed flow on 4235 faces (97.5% area) of pressure-outlet 24.

 Reversed flow on 1579 faces (75.4% area) of pressure-outlet 25.
   154  2.4948e-01  1.5913e-03  1.5625e-03  1.4978e-03  2.4407e-03  6.8134e-03  0:11:08  346

 turbulent viscosity limited to viscosity ratio of 1.000000e+05 in 1 cells 

 Reversed flow on 4255 faces (97.8% area) of pressure-outlet 24.

 Reversed flow on 1576 faces (75.2% area) of pressure-outlet 25.

  iter  continuity  x-velocity  y-velocity  z-velocity           k     epsilon     time/iter
   155  2.5021e-01  1.5942e-03  1.5612e-03  1.5034e-03  2.4388e-03  6.9516e-03  0:10:02  345

 turbulent viscosity limited to viscosity ratio of 1.000000e+05 in 3 cells 

 Reversed flow on 4282 faces (98.3% area) of pressure-outlet 24.

 Reversed flow on 1575 faces (75.2% area) of pressure-outlet 25.
   156  2.5170e-01  1.5909e-03  1.5538e-03  1.5052e-03  2.4945e-03  7.0139e-03  0:10:18  344

 turbulent viscosity limited to viscosity ratio of 1.000000e+05 in 1 cells 

 Reversed flow on 4321 faces (98.9% area) of pressure-outlet 24.

 Reversed flow on 1576 faces (75.2% area) of pressure-outlet 25.
   157  2.5169e-01  1.5817e-03  1.5395e-03  1.5013e-03  2.5169e-03  7.4335e-03  0:11:39  343

 Reversed flow on 4357 faces (99.2% area) of pressure-outlet 24.

 Reversed flow on 1571 faces (75.0% area) of pressure-outlet 25.
   158  2.5219e-01  1.5554e-03  1.5357e-03  1.5026e-03  2.4993e-03  7.2319e-03  0:11:34  342

 Reversed flow on 4365 faces (99.5% area) of pressure-outlet 24.

 Reversed flow on 1569 faces (75.0% area) of pressure-outlet 25.
   159  2.5291e-01  1.5379e-03  1.5285e-03  1.5070e-03  2.5112e-03  7.2580e-03  0:11:30  341

 Reversed flow on 4370 faces (99.6% area) of pressure-outlet 24.

 Reversed flow on 1567 faces (74.9% area) of pressure-outlet 25.
   160  2.5418e-01  1.5151e-03  1.5329e-03  1.5173e-03  2.4399e-03  7.0831e-03  0:10:18  340

 Reversed flow on 4378 faces (99.8% area) of pressure-outlet 24.

 Reversed flow on 1567 faces (74.9% area) of pressure-outlet 25.
   161  2.5521e-01  1.5091e-03  1.5318e-03  1.5254e-03  2.4367e-03  7.2600e-03  0:10:29  339

 Reversed flow on 4385 faces (100.0% area) of pressure-outlet 24.

 Reversed flow on 1567 faces (74.9% area) of pressure-outlet 25.
   162  2.5637e-01  1.4969e-03  1.5332e-03  1.5317e-03  2.3292e-03  6.7364e-03  0:10:37  338

 Reversed flow on 4385 faces (100.0% area) of pressure-outlet 24.

 Reversed flow on 1568 faces (75.0% area) of pressure-outlet 25.
   163  2.5704e-01  1.5020e-03  1.5260e-03  1.5325e-03  2.3623e-03  6.6790e-03  0:10:43  337

 Reversed flow on 4385 faces (100.0% area) of pressure-outlet 24.

 Reversed flow on 1566 faces (74.9% area) of pressure-outlet 25.
   164  2.5794e-01  1.5019e-03  1.5178e-03  1.5286e-03  2.2747e-03  6.4953e-03  0:10:47  336

 Reversed flow on 4385 faces (100.0% area) of pressure-outlet 24.

 Reversed flow on 1567 faces (74.9% area) of pressure-outlet 25.
   165  2.5740e-01  1.5030e-03  1.5046e-03  1.5188e-03  2.3166e-03  6.5878e-03  0:10:50  335

 turbulent viscosity limited to viscosity ratio of 1.000000e+05 in 2 cells 

 Reversed flow on 4385 faces (100.0% area) of pressure-outlet 24.

 Reversed flow on 1565 faces (74.8% area) of pressure-outlet 25.

  iter  continuity  x-velocity  y-velocity  z-velocity           k     epsilon     time/iter
   166  2.5641e-01  1.4932e-03  1.4888e-03  1.5053e-03  2.2521e-03  6.4835e-03  0:10:52  334

 turbulent viscosity limited to viscosity ratio of 1.000000e+05 in 3 cells 

 Reversed flow on 4385 faces (100.0% area) of pressure-outlet 24.

 Reversed flow on 1564 faces (74.8% area) of pressure-outlet 25.
   167  2.5644e-01  1.4856e-03  1.4790e-03  1.4936e-03  2.2821e-03  6.3308e-03  0:10:53  333

 turbulent viscosity limited to viscosity ratio of 1.000000e+05 in 3 cells 

 Reversed flow on 4385 faces (100.0% area) of pressure-outlet 24.

 Reversed flow on 1561 faces (74.6% area) of pressure-outlet 25.
   168  2.5714e-01  1.4820e-03  1.4703e-03  1.4829e-03  2.3146e-03  6.7643e-03  0:10:54  332

 turbulent viscosity limited to viscosity ratio of 1.000000e+05 in 1 cells 

 Reversed flow on 4385 faces (100.0% area) of pressure-outlet 24.

 Reversed flow on 1559 faces (74.5% area) of pressure-outlet 25.
   169  2.5800e-01  1.4681e-03  1.4701e-03  1.4728e-03  2.2720e-03  6.4150e-03  0:10:54  331

 turbulent viscosity limited to viscosity ratio of 1.000000e+05 in 1 cells 

 Reversed flow on 4385 faces (100.0% area) of pressure-outlet 24.

 Reversed flow on 1558 faces (74.5% area) of pressure-outlet 25.
   170  2.5875e-01  1.4663e-03  1.4626e-03  1.4601e-03  2.2872e-03  6.6184e-03  0:10:54  330

 turbulent viscosity limited to viscosity ratio of 1.000000e+05 in 1 cells 

 Reversed flow on 4385 faces (100.0% area) of pressure-outlet 24.

 Reversed flow on 1562 faces (74.7% area) of pressure-outlet 25.
   171  2.5983e-01  1.4531e-03  1.4739e-03  1.4518e-03  2.2469e-03  6.3295e-03  0:10:53  329

 Reversed flow on 4385 faces (100.0% area) of pressure-outlet 24.

 Reversed flow on 1563 faces (74.7% area) of pressure-outlet 25.
   172  2.6057e-01  1.4622e-03  1.4715e-03  1.4454e-03  2.4051e-03  7.0482e-03  0:09:46  328

 Reversed flow on 4371 faces (99.6% area) of pressure-outlet 24.

 Reversed flow on 1560 faces (74.6% area) of pressure-outlet 25.
   173  2.6222e-01  1.4602e-03  1.4860e-03  1.4497e-03  2.3746e-03  6.9416e-03  0:09:58  327

 Reversed flow on 4267 faces (96.9% area) of pressure-outlet 24.

 Reversed flow on 1562 faces (74.7% area) of pressure-outlet 25.
   174  2.6405e-01  1.4812e-03  1.4929e-03  1.4667e-03  2.5384e-03  7.3443e-03  0:10:08  326

 Reversed flow on 4179 faces (94.8% area) of pressure-outlet 24.

 Reversed flow on 1566 faces (74.9% area) of pressure-outlet 25.
   175  2.6639e-01  1.4961e-03  1.5147e-03  1.4992e-03  2.5201e-03  7.1702e-03  0:10:15  325

 Reversed flow on 4138 faces (93.6% area) of pressure-outlet 24.

 Reversed flow on 1565 faces (74.8% area) of pressure-outlet 25.
   176  2.7014e-01  1.5300e-03  1.5327e-03  1.5395e-03  2.7459e-03  8.1362e-03  0:09:15  324

 Reversed flow on 4123 faces (93.3% area) of pressure-outlet 24.

 Reversed flow on 1566 faces (74.9% area) of pressure-outlet 25.

  iter  continuity  x-velocity  y-velocity  z-velocity           k     epsilon     time/iter
   177  2.7315e-01  1.5581e-03  1.5605e-03  1.5856e-03  2.7041e-03  8.1498e-03  0:09:32  323

 Reversed flow on 4123 faces (93.3% area) of pressure-outlet 24.

 Reversed flow on 1567 faces (74.9% area) of pressure-outlet 25.
   178  2.7610e-01  1.5883e-03  1.5897e-03  1.6249e-03  2.8608e-03  8.3474e-03  0:09:45  322

 turbulent viscosity limited to viscosity ratio of 1.000000e+05 in 1 cells 

 Reversed flow on 4127 faces (93.4% area) of pressure-outlet 24.

 Reversed flow on 1566 faces (74.8% area) of pressure-outlet 25.
   179  2.7775e-01  1.6121e-03  1.6178e-03  1.6543e-03  2.8186e-03  8.3459e-03  0:08:51  321

 turbulent viscosity limited to viscosity ratio of 1.000000e+05 in 4 cells 

 Reversed flow on 4131 faces (93.5% area) of pressure-outlet 24.

 Reversed flow on 1568 faces (74.9% area) of pressure-outlet 25.
   180  2.8015e-01  1.6306e-03  1.6521e-03  1.6775e-03  2.9031e-03  8.7225e-03  0:10:15  320

 Reversed flow on 4134 faces (93.6% area) of pressure-outlet 24.

 Reversed flow on 1571 faces (75.1% area) of pressure-outlet 25.
   181  2.8062e-01  1.6488e-03  1.6787e-03  1.6888e-03  2.9048e-03  9.2280e-03  0:09:14  319

 Reversed flow on 4132 faces (93.5% area) of pressure-outlet 24.

 Reversed flow on 1572 faces (75.2% area) of pressure-outlet 25.
   182  2.8036e-01  1.6403e-03  1.7015e-03  1.6891e-03  2.8545e-03  8.6422e-03  0:09:29  318

 Reversed flow on 4139 faces (93.6% area) of pressure-outlet 24.

 Reversed flow on 1571 faces (75.1% area) of pressure-outlet 25.
   183  2.7893e-01  1.6579e-03  1.7069e-03  1.6861e-03  2.7872e-03  8.7684e-03  0:09:41  317

 Reversed flow on 4145 faces (93.6% area) of pressure-outlet 24.

[...]

 Reversed flow on 3879 faces (88.7% area) of pressure-outlet 24.

 Reversed flow on 1579 faces (75.4% area) of pressure-outlet 25.

  iter  continuity  x-velocity  y-velocity  z-velocity           k     epsilon     time/iter
   430  3.3193e-01  1.9721e-03  2.0045e-03  2.0828e-03  3.5930e-03  8.4953e-03  0:02:24   70

 Reversed flow on 3919 faces (89.5% area) of pressure-outlet 24.

 Reversed flow on 1575 faces (75.2% area) of pressure-outlet 25.
   431  3.3571e-01  1.9670e-03  2.0014e-03  2.0776e-03  3.5651e-03  8.6776e-03  0:02:21   69

 Reversed flow on 3960 faces (90.7% area) of pressure-outlet 24.

 Reversed flow on 1574 faces (75.2% area) of pressure-outlet 25.
   432  3.3934e-01  1.9640e-03  2.0024e-03  2.0743e-03  3.5362e-03  8.5500e-03  0:02:19   68

 Reversed flow on 4003 faces (91.7% area) of pressure-outlet 24.

 Reversed flow on 1569 faces (75.0% area) of pressure-outlet 25.
   433  3.4119e-01  1.9687e-03  2.0013e-03  2.0688e-03  3.4402e-03  8.2019e-03  0:02:16   67

 Reversed flow on 4049 faces (92.6% area) of pressure-outlet 24.

 Reversed flow on 1559 faces (74.5% area) of pressure-outlet 25.
   434  3.4117e-01  1.9677e-03  1.9939e-03  2.0588e-03  3.3853e-03  7.8461e-03  0:02:00   66

 Reversed flow on 4093 faces (93.5% area) of pressure-outlet 24.

 Reversed flow on 1550 faces (74.1% area) of pressure-outlet 25.
   435  3.4050e-01  1.9682e-03  1.9785e-03  2.0437e-03  3.3703e-03  7.6163e-03  0:02:01   65

 Reversed flow on 4129 faces (94.2% area) of pressure-outlet 24.

 Reversed flow on 1551 faces (74.1% area) of pressure-outlet 25.
   436  3.3981e-01  1.9582e-03  1.9700e-03  2.0300e-03  3.3911e-03  7.2885e-03  0:02:01   64

 Reversed flow on 4149 faces (94.7% area) of pressure-outlet 24.

 Reversed flow on 1548 faces (74.0% area) of pressure-outlet 25.
   437  3.3857e-01  1.9614e-03  1.9645e-03  2.0261e-03  3.4562e-03  7.3867e-03  0:02:00   63

 Reversed flow on 4172 faces (95.4% area) of pressure-outlet 24.

 Reversed flow on 1542 faces (73.7% area) of pressure-outlet 25.
   438  3.3817e-01  1.9633e-03  1.9744e-03  2.0327e-03  3.4925e-03  7.5167e-03  0:02:00   62

 Reversed flow on 4027 faces (92.3% area) of pressure-outlet 24.

 Reversed flow on 1547 faces (73.9% area) of pressure-outlet 25.
   439  3.3749e-01  1.9940e-03  1.9827e-03  2.0400e-03  3.5925e-03  8.3554e-03  0:02:11   61

 Reversed flow on 3925 faces (89.7% area) of pressure-outlet 24.

 Reversed flow on 1550 faces (74.1% area) of pressure-outlet 25.
   440  3.3803e-01  2.0164e-03  2.0003e-03  2.0539e-03  3.6114e-03  8.6912e-03  0:02:07   60

 Reversed flow on 3865 faces (88.4% area) of pressure-outlet 24.

 Reversed flow on 1558 faces (74.4% area) of pressure-outlet 25.

  iter  continuity  x-velocity  y-velocity  z-velocity           k     epsilon     time/iter
   441  3.3903e-01  2.0409e-03  2.0112e-03  2.0634e-03  3.6984e-03  9.3300e-03  0:02:03   59

 Reversed flow on 3842 faces (87.9% area) of pressure-outlet 24.

 Reversed flow on 1566 faces (74.9% area) of pressure-outlet 25.
   442  3.3900e-01  2.0481e-03  2.0254e-03  2.0688e-03  3.7224e-03  9.6309e-03  0:01:49   58

 Reversed flow on 3915 faces (89.1% area) of pressure-outlet 24.

 Reversed flow on 1571 faces (75.1% area) of pressure-outlet 25.
   443  3.3812e-01  2.0701e-03  2.0395e-03  2.0707e-03  3.8099e-03  9.8769e-03  0:01:48   57

 Reversed flow on 3996 faces (90.6% area) of pressure-outlet 24.

 Reversed flow on 1579 faces (75.4% area) of pressure-outlet 25.
   444  3.3789e-01  2.0879e-03  2.0650e-03  2.0754e-03  3.8567e-03  9.8670e-03  0:01:47   56

 Reversed flow on 4064 faces (92.1% area) of pressure-outlet 24.

 Reversed flow on 1582 faces (75.6% area) of pressure-outlet 25.
   445  3.3834e-01  2.1096e-03  2.0929e-03  2.0936e-03  3.9329e-03  9.9539e-03  0:01:35   55

 Reversed flow on 4115 faces (93.4% area) of pressure-outlet 24.

 Reversed flow on 1588 faces (75.8% area) of pressure-outlet 25.
   446  3.3848e-01  2.1201e-03  2.1141e-03  2.1174e-03  3.9626e-03  1.0402e-02  0:01:37   54

 Reversed flow on 4176 faces (94.7% area) of pressure-outlet 24.

 Reversed flow on 1601 faces (76.4% area) of pressure-outlet 25.
   447  3.3900e-01  2.1235e-03  2.1289e-03  2.1369e-03  3.9674e-03  1.0234e-02  0:01:48   53

 Reversed flow on 4247 faces (96.5% area) of pressure-outlet 24.

 Reversed flow on 1602 faces (76.4% area) of pressure-outlet 25.
   448  3.3844e-01  2.1240e-03  2.1289e-03  2.1457e-03  3.9411e-03  1.0507e-02  0:01:35   52

 Reversed flow on 4308 faces (98.0% area) of pressure-outlet 24.

 Reversed flow on 1606 faces (76.6% area) of pressure-outlet 25.
   449  3.3823e-01  2.1199e-03  2.1304e-03  2.1555e-03  3.9202e-03  1.0388e-02  0:01:35   51

 Reversed flow on 4347 faces (99.0% area) of pressure-outlet 24.

 Reversed flow on 1606 faces (76.6% area) of pressure-outlet 25.
   450  3.3796e-01  2.1161e-03  2.1263e-03  2.1618e-03  3.9427e-03  1.0763e-02  0:01:34   50

 Reversed flow on 4376 faces (99.7% area) of pressure-outlet 24.

 Reversed flow on 1606 faces (76.6% area) of pressure-outlet 25.
   451  3.3774e-01  2.1001e-03  2.1228e-03  2.1667e-03  3.8800e-03  1.0083e-02  0:01:24   49

 Reversed flow on 4385 faces (100.0% area) of pressure-outlet 24.

 Reversed flow on 1598 faces (76.2% area) of pressure-outlet 25.

  iter  continuity  x-velocity  y-velocity  z-velocity           k     epsilon     time/iter
   452  3.3775e-01  2.1072e-03  2.1151e-03  2.1731e-03  3.9068e-03  1.0323e-02  0:01:25   48

 Reversed flow on 4385 faces (100.0% area) of pressure-outlet 24.

 Reversed flow on 1591 faces (75.9% area) of pressure-outlet 25.
   453  3.3872e-01  2.1086e-03  2.1132e-03  2.1782e-03  3.7685e-03  9.6321e-03  0:01:25   47

 Reversed flow on 4385 faces (100.0% area) of pressure-outlet 24.

 Reversed flow on 1588 faces (75.8% area) of pressure-outlet 25.
   454  3.4034e-01  2.1267e-03  2.0983e-03  2.1719e-03  3.7829e-03  9.9964e-03  0:01:25   46

 Reversed flow on 4381 faces (99.9% area) of pressure-outlet 24.

 Reversed flow on 1576 faces (75.3% area) of pressure-outlet 25.
   455  3.4134e-01  2.1247e-03  2.0892e-03  2.1536e-03  3.6071e-03  9.7088e-03  0:01:16   45

 Reversed flow on 4347 faces (99.4% area) of pressure-outlet 24.

 Reversed flow on 1568 faces (74.9% area) of pressure-outlet 25.
   456  3.4084e-01  2.1281e-03  2.0730e-03  2.1295e-03  3.6273e-03  9.7895e-03  0:01:17   44

 Reversed flow on 4297 faces (98.2% area) of pressure-outlet 24.

 Reversed flow on 1564 faces (74.7% area) of pressure-outlet 25.
   457  3.3884e-01  2.1091e-03  2.0645e-03  2.1100e-03  3.4183e-03  9.0136e-03  0:01:17   43

 Reversed flow on 4280 faces (97.7% area) of pressure-outlet 24.

 Reversed flow on 1562 faces (74.7% area) of pressure-outlet 25.
   458  3.3680e-01  2.1011e-03  2.0514e-03  2.0863e-03  3.4144e-03  9.0955e-03  0:01:09   42

 Reversed flow on 4274 faces (97.5% area) of pressure-outlet 24.

 Reversed flow on 1556 faces (74.4% area) of pressure-outlet 25.
   459  3.3400e-01  2.0849e-03  2.0377e-03  2.0639e-03  3.2588e-03  9.0978e-03  0:01:10   41

 Reversed flow on 4274 faces (97.5% area) of pressure-outlet 24.

 Reversed flow on 1557 faces (74.5% area) of pressure-outlet 25.
   460  3.3152e-01  2.0783e-03  2.0251e-03  2.0518e-03  3.2490e-03  8.9534e-03  0:01:11   40

 Reversed flow on 4295 faces (98.0% area) of pressure-outlet 24.

 Reversed flow on 1557 faces (74.5% area) of pressure-outlet 25.
   461  3.2906e-01  2.0754e-03  2.0089e-03  2.0424e-03  3.1554e-03  9.0139e-03  0:01:11   39

 Reversed flow on 4318 faces (98.6% area) of pressure-outlet 24.

 Reversed flow on 1563 faces (74.8% area) of pressure-outlet 25.
   462  3.2655e-01  2.0723e-03  1.9947e-03  2.0352e-03  3.1177e-03  8.7000e-03  0:01:03   38

 Reversed flow on 4357 faces (99.4% area) of pressure-outlet 24.

 Reversed flow on 1567 faces (75.0% area) of pressure-outlet 25.

  iter  continuity  x-velocity  y-velocity  z-velocity           k     epsilon     time/iter
   463  3.2465e-01  2.0680e-03  1.9772e-03  2.0264e-03  3.0880e-03  8.7821e-03  0:01:04   37

 Reversed flow on 4382 faces (100.0% area) of pressure-outlet 24.

 Reversed flow on 1572 faces (75.2% area) of pressure-outlet 25.
   464  3.2364e-01  2.0447e-03  1.9698e-03  2.0174e-03  3.0228e-03  8.4153e-03  0:01:04   36

 Reversed flow on 4385 faces (100.0% area) of pressure-outlet 24.

 Reversed flow on 1574 faces (75.3% area) of pressure-outlet 25.
   465  3.2237e-01  2.0391e-03  1.9599e-03  2.0116e-03  3.0464e-03  8.2923e-03  0:01:04   35

 Reversed flow on 4385 faces (100.0% area) of pressure-outlet 24.

 Reversed flow on 1580 faces (75.6% area) of pressure-outlet 25.
   466  3.2043e-01  2.0225e-03  1.9667e-03  2.0116e-03  2.9782e-03  8.0283e-03  0:01:03   34

 Reversed flow on 4385 faces (100.0% area) of pressure-outlet 24.

 Reversed flow on 1588 faces (75.9% area) of pressure-outlet 25.
   467  3.1990e-01  2.0192e-03  1.9665e-03  2.0088e-03  2.9982e-03  8.1952e-03  0:01:02   33

 Reversed flow on 4385 faces (100.0% area) of pressure-outlet 24.

 Reversed flow on 1592 faces (76.1% area) of pressure-outlet 25.
   468  3.2032e-01  1.9979e-03  1.9710e-03  2.0051e-03  2.9011e-03  7.8772e-03  0:01:01   32

 Reversed flow on 4385 faces (100.0% area) of pressure-outlet 24.

 Reversed flow on 1591 faces (76.0% area) of pressure-outlet 25.
   469  3.2001e-01  1.9858e-03  1.9635e-03  1.9946e-03  2.9386e-03  7.6996e-03  0:01:00   31

 Reversed flow on 4385 faces (100.0% area) of pressure-outlet 24.

 Reversed flow on 1594 faces (76.2% area) of pressure-outlet 25.
   470  3.1890e-01  1.9676e-03  1.9537e-03  1.9772e-03  2.8718e-03  7.6988e-03  0:00:52   30

 Reversed flow on 4385 faces (100.0% area) of pressure-outlet 24.

 Reversed flow on 1595 faces (76.2% area) of pressure-outlet 25.
   471  3.1772e-01  1.9562e-03  1.9329e-03  1.9558e-03  2.9051e-03  7.5861e-03  0:00:52   29

 Reversed flow on 4385 faces (100.0% area) of pressure-outlet 24.

 Reversed flow on 1594 faces (76.2% area) of pressure-outlet 25.
   472  3.1587e-01  1.9370e-03  1.9094e-03  1.9356e-03  2.9284e-03  8.0217e-03  0:00:51   28

 Reversed flow on 4385 faces (100.0% area) of pressure-outlet 24.

 Reversed flow on 1595 faces (76.2% area) of pressure-outlet 25.
   473  3.1443e-01  1.9205e-03  1.8944e-03  1.9235e-03  3.0185e-03  7.9373e-03  0:00:45   27

 Reversed flow on 4385 faces (100.0% area) of pressure-outlet 24.

 Reversed flow on 1594 faces (76.2% area) of pressure-outlet 25.

  iter  continuity  x-velocity  y-velocity  z-velocity           k     epsilon     time/iter
   474  3.1264e-01  1.9195e-03  1.8862e-03  1.9221e-03  3.1485e-03  8.9005e-03  0:00:50   26

 Reversed flow on 4385 faces (100.0% area) of pressure-outlet 24.

 Reversed flow on 1590 faces (76.0% area) of pressure-outlet 25.
   475  3.1109e-01  1.9171e-03  1.8894e-03  1.9378e-03  3.1630e-03  9.0379e-03  0:00:49   25

 Reversed flow on 4385 faces (100.0% area) of pressure-outlet 24.

 Reversed flow on 1583 faces (75.7% area) of pressure-outlet 25.
   476  3.1041e-01  1.9197e-03  1.8897e-03  1.9493e-03  3.2062e-03  9.4755e-03  0:00:42   24

 turbulent viscosity limited to viscosity ratio of 1.000000e+05 in 2 cells 

 Reversed flow on 4385 faces (100.0% area) of pressure-outlet 24.

 Reversed flow on 1573 faces (75.3% area) of pressure-outlet 25.
   477  3.1054e-01  1.9077e-03  1.8934e-03  1.9554e-03  3.1474e-03  9.2947e-03  0:00:42   23

 turbulent viscosity limited to viscosity ratio of 1.000000e+05 in 8 cells 

 Reversed flow on 4385 faces (100.0% area) of pressure-outlet 24.

 Reversed flow on 1568 faces (75.0% area) of pressure-outlet 25.
   478  3.1142e-01  1.9092e-03  1.8847e-03  1.9485e-03  3.2028e-03  9.4725e-03  0:00:41   22

 turbulent viscosity limited to viscosity ratio of 1.000000e+05 in 21 cells 

 Reversed flow on 4385 faces (100.0% area) of pressure-outlet 24.

 Reversed flow on 1565 faces (74.9% area) of pressure-outlet 25.
   479  3.1250e-01  1.8995e-03  1.8715e-03  1.9272e-03  3.0514e-03  9.2022e-03  0:00:39   21

 turbulent viscosity limited to viscosity ratio of 1.000000e+05 in 6 cells 

 Reversed flow on 4385 faces (100.0% area) of pressure-outlet 24.

 Reversed flow on 1563 faces (74.8% area) of pressure-outlet 25.
   480  3.1368e-01  1.8939e-03  1.8418e-03  1.8954e-03  3.0225e-03  9.1813e-03  0:00:38   20

 turbulent viscosity limited to viscosity ratio of 1.000000e+05 in 2 cells 

 Reversed flow on 4385 faces (100.0% area) of pressure-outlet 24.

 Reversed flow on 1557 faces (74.5% area) of pressure-outlet 25.
   481  3.1304e-01  1.8728e-03  1.8116e-03  1.8573e-03  2.8715e-03  8.5428e-03  0:00:33   19

 Reversed flow on 4385 faces (100.0% area) of pressure-outlet 24.

 Reversed flow on 1555 faces (74.4% area) of pressure-outlet 25.
   482  3.1126e-01  1.8523e-03  1.7728e-03  1.8177e-03  2.8630e-03  8.0051e-03  0:00:32   18

 Reversed flow on 4385 faces (100.0% area) of pressure-outlet 24.

 Reversed flow on 1556 faces (74.4% area) of pressure-outlet 25.
   483  3.0656e-01  1.8280e-03  1.7334e-03  1.7830e-03  2.7338e-03  7.9062e-03  0:00:31   17

 Reversed flow on 4385 faces (100.0% area) of pressure-outlet 24.

 Reversed flow on 1561 faces (74.7% area) of pressure-outlet 25.
   484  3.0117e-01  1.7975e-03  1.7048e-03  1.7545e-03  2.7511e-03  7.5262e-03  0:00:27   16

 turbulent viscosity limited to viscosity ratio of 1.000000e+05 in 2 cells 

 Reversed flow on 4383 faces (100.0% area) of pressure-outlet 24.

 Reversed flow on 1565 faces (74.9% area) of pressure-outlet 25.

  iter  continuity  x-velocity  y-velocity  z-velocity           k     epsilon     time/iter
   485  2.9763e-01  1.7781e-03  1.6829e-03  1.7391e-03  2.7426e-03  7.7068e-03  0:00:23   15

 Reversed flow on 4201 faces (96.6% area) of pressure-outlet 24.

 Reversed flow on 1571 faces (75.2% area) of pressure-outlet 25.
   486  2.9599e-01  1.7560e-03  1.6776e-03  1.7327e-03  2.7448e-03  7.1932e-03  0:00:20   14

 Reversed flow on 4012 faces (92.1% area) of pressure-outlet 24.

 Reversed flow on 1575 faces (75.4% area) of pressure-outlet 25.
   487  2.9415e-01  1.7539e-03  1.6698e-03  1.7221e-03  2.7802e-03  7.8250e-03  0:00:20   13

 Reversed flow on 3902 faces (89.6% area) of pressure-outlet 24.

 Reversed flow on 1574 faces (75.3% area) of pressure-outlet 25.
   488  2.9182e-01  1.7409e-03  1.6730e-03  1.7106e-03  2.7861e-03  7.5275e-03  0:00:17   12

 Reversed flow on 3843 faces (88.1% area) of pressure-outlet 24.

 Reversed flow on 1575 faces (75.4% area) of pressure-outlet 25.
   489  2.8981e-01  1.7550e-03  1.6690e-03  1.7017e-03  2.8924e-03  8.1547e-03  0:00:17   11

 Reversed flow on 3853 faces (88.4% area) of pressure-outlet 24.

 Reversed flow on 1575 faces (75.4% area) of pressure-outlet 25.
   490  2.8896e-01  1.7538e-03  1.6816e-03  1.7042e-03  2.8559e-03  7.7238e-03  0:00:16   10

 Reversed flow on 3984 faces (91.5% area) of pressure-outlet 24.

 Reversed flow on 1574 faces (75.3% area) of pressure-outlet 25.
   491  2.8860e-01  1.7725e-03  1.6862e-03  1.7137e-03  2.9867e-03  8.4273e-03  0:00:15    9

 Reversed flow on 4148 faces (95.2% area) of pressure-outlet 24.

 Reversed flow on 1571 faces (75.1% area) of pressure-outlet 25.
   492  2.8967e-01  1.7743e-03  1.6993e-03  1.7324e-03  2.9078e-03  7.9869e-03  0:00:14    8

 Reversed flow on 4315 faces (98.7% area) of pressure-outlet 24.

 Reversed flow on 1568 faces (75.0% area) of pressure-outlet 25.
   493  2.9081e-01  1.7967e-03  1.7073e-03  1.7464e-03  2.9636e-03  8.6746e-03  0:00:13    7

 Reversed flow on 4385 faces (100.0% area) of pressure-outlet 24.

 Reversed flow on 1563 faces (74.8% area) of pressure-outlet 25.
   494  2.9246e-01  1.8024e-03  1.7192e-03  1.7561e-03  2.8591e-03  8.3050e-03  0:00:11    6

 Reversed flow on 4377 faces (99.8% area) of pressure-outlet 24.

 Reversed flow on 1560 faces (74.7% area) of pressure-outlet 25.
   495  2.9341e-01  1.8198e-03  1.7160e-03  1.7605e-03  2.9439e-03  8.4621e-03  0:00:08    5

 Reversed flow on 4317 faces (98.3% area) of pressure-outlet 24.

 Reversed flow on 1559 faces (74.6% area) of pressure-outlet 25.

  iter  continuity  x-velocity  y-velocity  z-velocity           k     epsilon     time/iter
   496  2.9417e-01  1.8247e-03  1.7170e-03  1.7645e-03  2.8072e-03  7.9330e-03  0:00:07    4

 Reversed flow on 4270 faces (97.1% area) of pressure-outlet 24.

 Reversed flow on 1559 faces (74.6% area) of pressure-outlet 25.
   497  2.9500e-01  1.8243e-03  1.7217e-03  1.7662e-03  2.8455e-03  7.8691e-03  0:00:05    3

 turbulent viscosity limited to viscosity ratio of 1.000000e+05 in 2 cells 

 Reversed flow on 4239 faces (96.2% area) of pressure-outlet 24.

 Reversed flow on 1559 faces (74.6% area) of pressure-outlet 25.
   498  2.9583e-01  1.8111e-03  1.7231e-03  1.7568e-03  2.7314e-03  7.5183e-03  0:00:04    2

 turbulent viscosity limited to viscosity ratio of 1.000000e+05 in 1 cells 

 Reversed flow on 4228 faces (95.8% area) of pressure-outlet 24.

 Reversed flow on 1561 faces (74.7% area) of pressure-outlet 25.
   499  2.9645e-01  1.7839e-03  1.7145e-03  1.7379e-03  2.7324e-03  7.2602e-03  0:00:02    1

 turbulent viscosity limited to viscosity ratio of 1.000000e+05 in 5 cells 

 Reversed flow on 4213 faces (95.6% area) of pressure-outlet 24.

 Reversed flow on 1564 faces (74.8% area) of pressure-outlet 25.
   500  2.9539e-01  1.7634e-03  1.6961e-03  1.7137e-03  2.7080e-03  7.6336e-03  0:00:00    0

> ;/solve/set/time-step 0.01
;solve/set/data-sampling y 1 y y
;/solve/dual-time-iterate 5000 10

adjoint/                file/                   report/
define/                 mesh/                   solve/
display/                parallel/               surface/
exit                    plot/                   views/

> ; set save
;no .h5 format

adjoint/                file/                   report/
define/                 mesh/                   solve/
display/                parallel/               surface/
exit                    plot/                   views/

> /file/cff-files? n

> ;/file/autosave/root-name "Me_317"
/file/write-case-data "E:\LGF\Sim\task\0826_1\P_85\FluentData_M100_-4100_85.cas"
Writing "E:\LGF\Sim\task\0826_1\P_85\FluentData_M100_-4100_85.cas"...

    6990 mixed cells, zone 15, binary.
  565192 mixed cells, zone 16, binary.
  128494 mixed cells, zone 17, binary.
   99631 mixed cells, zone 18, binary.
  112217 mixed cells, zone 19, binary.
    6990 cell partition ids, zone 15, 100 partitions, binary.
  565192 cell partition ids, zone 16, 100 partitions, binary.
  128494 cell partition ids, zone 17, 100 partitions, binary.
   99631 cell partition ids, zone 18, 100 partitions, binary.
  112217 cell partition ids, zone 19, 100 partitions, binary.
    3768 mixed wall faces, zone  1, binary.
   34998 triangular wall faces, zone  2, binary.
    6023 triangular wall faces, zone  3, binary.
   11483 triangular wall faces, zone  4, binary.
    5640 triangular wall faces, zone  5, binary.
    2602 triangular interior faces, zone  6, binary.
     310 quadrilateral interior faces, zone  7, binary.
    2662 mixed interior faces, zone  8, binary.
    2776 mixed interior faces, zone  9, binary.
   18821 mixed interior faces, zone 10, binary.
 1189685 mixed interior faces, zone 11, binary.
  263371 mixed interior faces, zone 12, binary.
  203749 mixed interior faces, zone 13, binary.
  217848 triangular interior faces, zone 14, binary.
     637 triangular pressure-outlet faces, zone 22, binary.
     100 quadrilateral velocity-inlet faces, zone 23, binary.
    4385 mixed pressure-outlet faces, zone 24, binary.
    2646 mixed pressure-outlet faces, zone 25, binary.
    1906 triangular velocity-inlet faces, zone 26, binary.
    4293 triangular wall faces, zone 27, binary.
    4279 triangular wall faces, zone 28, binary.
  252813 nodes, binary.
  252813 node flags, binary.
Done.


Writing "E:\LGF\Sim\task\0826_1\P_85\FluentData_M100_-4100_85.dat"...

Done.



> ;/display/save-picture "E:\LGF\Sim\task\0826_1\P_85\FluentData_M100_-4100_85jpg"
/exit/c