
              Welcome to ANSYS Fluent 2020 R1

              Copyright 1987-2020 ANSYS, Inc. All Rights Reserved.
              Unauthorized use, distribution or duplication is prohibited.
              This product is subject to U.S. laws governing export and re-export.
              For full Legal Notice, see documentation.

Build Time: Dec  2 2019 14:15:26 EST  Build Id: 10114  
 
Host spawning Node 0 on machine "DESKTOP-8RUTNJQ" (win64).
WARNING: No cached password or password provided.
         use '-pass' or '-cache' to provide password
Host 0 -- ip 192.168.161.95 -- ranks 0 - 99

 host | 0
======|======
    0 : SHM

 Prot -  All Intra-node communication is: SHM


-------------------------------------------------------------------------------
ID    Hostname         Core     O.S.         PID     Vendor        
-------------------------------------------------------------------------------
n99   DESKTOP-8RUTNJQ  100/128  Windows-x64  183364  AMD EPYC 7702 
n98   DESKTOP-8RUTNJQ  99/128   Windows-x64  183256  AMD EPYC 7702 
n97   DESKTOP-8RUTNJQ  98/128   Windows-x64  187520  AMD EPYC 7702 
n96   DESKTOP-8RUTNJQ  97/128   Windows-x64  178212  AMD EPYC 7702 
n95   DESKTOP-8RUTNJQ  96/128   Windows-x64  182960  AMD EPYC 7702 
n94   DESKTOP-8RUTNJQ  95/128   Windows-x64  180544  AMD EPYC 7702 
n93   DESKTOP-8RUTNJQ  94/128   Windows-x64  183392  AMD EPYC 7702 
n92   DESKTOP-8RUTNJQ  93/128   Windows-x64  181692  AMD EPYC 7702 
n91   DESKTOP-8RUTNJQ  92/128   Windows-x64  176024  AMD EPYC 7702 
n90   DESKTOP-8RUTNJQ  91/128   Windows-x64  178172  AMD EPYC 7702 
n89   DESKTOP-8RUTNJQ  90/128   Windows-x64  153864  AMD EPYC 7702 
n88   DESKTOP-8RUTNJQ  89/128   Windows-x64  183056  AMD EPYC 7702 
n87   DESKTOP-8RUTNJQ  88/128   Windows-x64  180500  AMD EPYC 7702 
n86   DESKTOP-8RUTNJQ  87/128   Windows-x64  177432  AMD EPYC 7702 
n85   DESKTOP-8RUTNJQ  86/128   Windows-x64  171672  AMD EPYC 7702 
n84   DESKTOP-8RUTNJQ  85/128   Windows-x64  177436  AMD EPYC 7702 
n83   DESKTOP-8RUTNJQ  84/128   Windows-x64  195668  AMD EPYC 7702 
n82   DESKTOP-8RUTNJQ  83/128   Windows-x64  184088  AMD EPYC 7702 
n81   DESKTOP-8RUTNJQ  82/128   Windows-x64  178236  AMD EPYC 7702 
n80   DESKTOP-8RUTNJQ  81/128   Windows-x64  183212  AMD EPYC 7702 
-------------------------------------------------------------------------------
ID    Hostname         Core     O.S.         PID     Vendor        
-------------------------------------------------------------------------------
n79   DESKTOP-8RUTNJQ  80/128   Windows-x64  180812  AMD EPYC 7702 
n78   DESKTOP-8RUTNJQ  79/128   Windows-x64  164132  AMD EPYC 7702 
n77   DESKTOP-8RUTNJQ  78/128   Windows-x64  195272  AMD EPYC 7702 
n76   DESKTOP-8RUTNJQ  77/128   Windows-x64  168168  AMD EPYC 7702 
n75   DESKTOP-8RUTNJQ  76/128   Windows-x64  196964  AMD EPYC 7702 
n74   DESKTOP-8RUTNJQ  75/128   Windows-x64  193964  AMD EPYC 7702 
n73   DESKTOP-8RUTNJQ  74/128   Windows-x64  197552  AMD EPYC 7702 
n72   DESKTOP-8RUTNJQ  73/128   Windows-x64  182288  AMD EPYC 7702 
n71   DESKTOP-8RUTNJQ  72/128   Windows-x64  187328  AMD EPYC 7702 
n70   DESKTOP-8RUTNJQ  71/128   Windows-x64  178196  AMD EPYC 7702 
n69   DESKTOP-8RUTNJQ  70/128   Windows-x64  194836  AMD EPYC 7702 
n68   DESKTOP-8RUTNJQ  69/128   Windows-x64  180840  AMD EPYC 7702 
n67   DESKTOP-8RUTNJQ  68/128   Windows-x64  184056  AMD EPYC 7702 
n66   DESKTOP-8RUTNJQ  67/128   Windows-x64  190256  AMD EPYC 7702 
n65   DESKTOP-8RUTNJQ  66/128   Windows-x64  178488  AMD EPYC 7702 
n64   DESKTOP-8RUTNJQ  65/128   Windows-x64  176808  AMD EPYC 7702 
n63   DESKTOP-8RUTNJQ  64/128   Windows-x64  182680  AMD EPYC 7702 
n62   DESKTOP-8RUTNJQ  63/128   Windows-x64  183032  AMD EPYC 7702 
n61   DESKTOP-8RUTNJQ  62/128   Windows-x64  179104  AMD EPYC 7702 
n60   DESKTOP-8RUTNJQ  61/128   Windows-x64  181312  AMD EPYC 7702 
-------------------------------------------------------------------------------
ID    Hostname         Core     O.S.         PID     Vendor        
-------------------------------------------------------------------------------
n59   DESKTOP-8RUTNJQ  60/128   Windows-x64  191524  AMD EPYC 7702 
n58   DESKTOP-8RUTNJQ  59/128   Windows-x64  195228  AMD EPYC 7702 
n57   DESKTOP-8RUTNJQ  58/128   Windows-x64  190316  AMD EPYC 7702 
n56   DESKTOP-8RUTNJQ  57/128   Windows-x64  183132  AMD EPYC 7702 
n55   DESKTOP-8RUTNJQ  56/128   Windows-x64  193980  AMD EPYC 7702 
n54   DESKTOP-8RUTNJQ  55/128   Windows-x64  177876  AMD EPYC 7702 
n53   DESKTOP-8RUTNJQ  54/128   Windows-x64  177396  AMD EPYC 7702 
n52   DESKTOP-8RUTNJQ  53/128   Windows-x64  191256  AMD EPYC 7702 
n51   DESKTOP-8RUTNJQ  52/128   Windows-x64  194548  AMD EPYC 7702 
n50   DESKTOP-8RUTNJQ  51/128   Windows-x64  191692  AMD EPYC 7702 
n49   DESKTOP-8RUTNJQ  50/128   Windows-x64  194808  AMD EPYC 7702 
n48   DESKTOP-8RUTNJQ  49/128   Windows-x64  188696  AMD EPYC 7702 
n47   DESKTOP-8RUTNJQ  48/128   Windows-x64  194876  AMD EPYC 7702 
n46   DESKTOP-8RUTNJQ  47/128   Windows-x64  193240  AMD EPYC 7702 
n45   DESKTOP-8RUTNJQ  46/128   Windows-x64  183584  AMD EPYC 7702 
n44   DESKTOP-8RUTNJQ  45/128   Windows-x64  194104  AMD EPYC 7702 
n43   DESKTOP-8RUTNJQ  44/128   Windows-x64  192624  AMD EPYC 7702 
n42   DESKTOP-8RUTNJQ  43/128   Windows-x64  194072  AMD EPYC 7702 
n41   DESKTOP-8RUTNJQ  42/128   Windows-x64  191880  AMD EPYC 7702 
n40   DESKTOP-8RUTNJQ  41/128   Windows-x64  177248  AMD EPYC 7702 
-------------------------------------------------------------------------------
ID    Hostname         Core     O.S.         PID     Vendor        
-------------------------------------------------------------------------------
n39   DESKTOP-8RUTNJQ  40/128   Windows-x64  192504  AMD EPYC 7702 
n38   DESKTOP-8RUTNJQ  39/128   Windows-x64  188924  AMD EPYC 7702 
n37   DESKTOP-8RUTNJQ  38/128   Windows-x64  173596  AMD EPYC 7702 
n36   DESKTOP-8RUTNJQ  37/128   Windows-x64  195868  AMD EPYC 7702 
n35   DESKTOP-8RUTNJQ  36/128   Windows-x64  193748  AMD EPYC 7702 
n34   DESKTOP-8RUTNJQ  35/128   Windows-x64  191008  AMD EPYC 7702 
n33   DESKTOP-8RUTNJQ  34/128   Windows-x64  194124  AMD EPYC 7702 
n32   DESKTOP-8RUTNJQ  33/128   Windows-x64  180480  AMD EPYC 7702 
n31   DESKTOP-8RUTNJQ  32/128   Windows-x64  195856  AMD EPYC 7702 
n30   DESKTOP-8RUTNJQ  31/128   Windows-x64  196080  AMD EPYC 7702 
n29   DESKTOP-8RUTNJQ  30/128   Windows-x64  194140  AMD EPYC 7702 
n28   DESKTOP-8RUTNJQ  29/128   Windows-x64  194668  AMD EPYC 7702 
n27   DESKTOP-8RUTNJQ  28/128   Windows-x64  190984  AMD EPYC 7702 
n26   DESKTOP-8RUTNJQ  27/128   Windows-x64  191028  AMD EPYC 7702 
n25   DESKTOP-8RUTNJQ  26/128   Windows-x64  192084  AMD EPYC 7702 
n24   DESKTOP-8RUTNJQ  25/128   Windows-x64  195192  AMD EPYC 7702 
n23   DESKTOP-8RUTNJQ  24/128   Windows-x64  196164  AMD EPYC 7702 
n22   DESKTOP-8RUTNJQ  23/128   Windows-x64  194752  AMD EPYC 7702 
n21   DESKTOP-8RUTNJQ  22/128   Windows-x64  190512  AMD EPYC 7702 
n20   DESKTOP-8RUTNJQ  21/128   Windows-x64  187040  AMD EPYC 7702 
-------------------------------------------------------------------------------
ID    Hostname         Core     O.S.         PID     Vendor        
-------------------------------------------------------------------------------
n19   DESKTOP-8RUTNJQ  20/128   Windows-x64  193072  AMD EPYC 7702 
n18   DESKTOP-8RUTNJQ  19/128   Windows-x64  194468  AMD EPYC 7702 
n17   DESKTOP-8RUTNJQ  18/128   Windows-x64  31560   AMD EPYC 7702 
n16   DESKTOP-8RUTNJQ  17/128   Windows-x64  193628  AMD EPYC 7702 
n15   DESKTOP-8RUTNJQ  16/128   Windows-x64  190724  AMD EPYC 7702 
n14   DESKTOP-8RUTNJQ  15/128   Windows-x64  190292  AMD EPYC 7702 
n13   DESKTOP-8RUTNJQ  14/128   Windows-x64  193260  AMD EPYC 7702 
n12   DESKTOP-8RUTNJQ  13/128   Windows-x64  194516  AMD EPYC 7702 
n11   DESKTOP-8RUTNJQ  12/128   Windows-x64  193116  AMD EPYC 7702 
n10   DESKTOP-8RUTNJQ  11/128   Windows-x64  195388  AMD EPYC 7702 
n9    DESKTOP-8RUTNJQ  10/128   Windows-x64  192260  AMD EPYC 7702 
n8    DESKTOP-8RUTNJQ  9/128    Windows-x64  192252  AMD EPYC 7702 
n7    DESKTOP-8RUTNJQ  8/128    Windows-x64  191260  AMD EPYC 7702 
n6    DESKTOP-8RUTNJQ  7/128    Windows-x64  194060  AMD EPYC 7702 
n5    DESKTOP-8RUTNJQ  6/128    Windows-x64  188392  AMD EPYC 7702 
n4    DESKTOP-8RUTNJQ  5/128    Windows-x64  187644  AMD EPYC 7702 
n3    DESKTOP-8RUTNJQ  4/128    Windows-x64  185756  AMD EPYC 7702 
n2    DESKTOP-8RUTNJQ  3/128    Windows-x64  194232  AMD EPYC 7702 
n1    DESKTOP-8RUTNJQ  2/128    Windows-x64  191516  AMD EPYC 7702 
n0*   DESKTOP-8RUTNJQ  1/128    Windows-x64  192856  AMD EPYC 7702 
host  DESKTOP-8RUTNJQ           Windows-x64  192988  AMD EPYC 7702 

MPI Option Selected: ibmmpi
Selected system interconnect: default
-------------------------------------------------------------------------------



Cleanup script file is E:\LGF\Sim\Script\\cleanup-fluent-DESKTOP-8RUTNJQ-194016.bat

Reading journal file E:\LGF\Sim\task\0826_1\P_85\J_M100_85_-5000.jou...

> ;Read case
/file/read-case E:\LGF\Sim\basic_Mesh\Model_100.msh

DESKTOP-8RUTNJQ has other FLUENT parallel processes running.                       Process affinity not being set.

Reading "E:\LGF\Sim\basic_Mesh\Model_100.msh"...

Buffering for file scan...

  209972 nodes, binary.
   42841 nodes, binary.
    3768 mixed wall faces, zone  1, binary.
   34998 triangular wall faces, zone  2, binary.
    6023 triangular wall faces, zone  3, binary.
   11483 triangular wall faces, zone  4, binary.
    5640 triangular wall faces, zone  5, binary.
    2602 triangular interior faces, zone  6, binary.
     310 quadrilateral interior faces, zone  7, binary.
    2662 mixed interior faces, zone  8, binary.
    2776 mixed interior faces, zone  9, binary.
   18821 mixed interior faces, zone 10, binary.
 1189685 mixed interior faces, zone 11, binary.
  263371 mixed interior faces, zone 12, binary.
  203749 mixed interior faces, zone 13, binary.
  217848 triangular interior faces, zone 14, binary.
     637 triangular wall faces, zone 22, binary.
     100 quadrilateral wall faces, zone 23, binary.
    4385 mixed wall faces, zone 24, binary.
    2646 mixed wall faces, zone 25, binary.
    1906 triangular wall faces, zone 26, binary.
    4293 triangular wall faces, zone 27, binary.
    4279 triangular wall faces, zone 28, binary.
    6990 mixed cells, zone 15, binary.
  565192 mixed cells, zone 16, binary.
  128494 mixed cells, zone 17, binary.
   99631 mixed cells, zone 18, binary.
  112217 mixed cells, zone 19, binary.

Building...
     mesh
	auto partitioning mesh by Metis (fast),
	distributing mesh
		parts..................................................,
		faces..................................................,
		nodes..................................................,
		cells..................................................,
        bandwidth reduction using Reverse Cuthill-McKee: 9508/523 = 18.1797
     materials,
     interface,
     domains,
     zones,
	wall_tx_xi
	wall_xi_tx
	i2
	p2
	p1
	i1
	o1
	towparts-xi_zhui
	towparts-tc_tc
	towparts-tx_tx
	towparts-block_block
	towparts-xi_huan
	interior-towparts-xi_zhui
	interior-towparts-tc_tc
	interior-towparts-tx_tx
	interior-towparts-block_block
	interior-towparts-xi_huan
	interior-towparts-block_block-towparts-tc_tc
	interior-towparts-block_block-towparts-tx_tx
	interior-towparts-xi_huan-towparts-xi_zhui
	interior-towparts-block_block-towparts-xi_zhui
	wall-towparts-xi_zhui
	wall-towparts-tc_tc
	wall-towparts-tx_tx
	wall-towparts-block_block
	wall-towparts-xi_huan
     parallel,
Done.

> 
adjoint/                file/                   report/
define/                 mesh/                   solve/
display/                parallel/               surface/
exit                    plot/                   views/

> ; set save
;;/file/auto-save/data-frequency 2000
;;/file/auto-save/case-frequency each-time
;;/file/autosave/root-name "30du.msh.gz"

adjoint/                file/                   report/
define/                 mesh/                   solve/
display/                parallel/               surface/
exit                    plot/                   views/

> ;delete mesh interface
;/define/mesh-interface/delete contact_region

adjoint/                file/                   report/
define/                 mesh/                   solve/
display/                parallel/               surface/
exit                    plot/                   views/

> ;/define/operating-conditions/gravity/ y 0 -9.8 6

adjoint/                file/                   report/
define/                 mesh/                   solve/
display/                parallel/               surface/
exit                    plot/                   views/

> ;scale
;;/mesh/scale 0.125 0.125 0.125

adjoint/                file/                   report/
define/                 mesh/                   solve/
display/                parallel/               surface/
exit                    plot/                   views/

> ;general

adjoint/                file/                   report/
define/                 mesh/                   solve/
display/                parallel/               surface/
exit                    plot/                   views/

> /define/operating-conditions? invalid command [operating-conditions?]
y 0.0 -9.8 0.0

> 
adjoint/                file/                   report/
define/                 mesh/                   solve/
display/                parallel/               surface/
exit                    plot/                   views/

> /define/models steady? Steady solution model is already enabled.
y
invalid command [y]

> ;/define/models unsteady-1st-order? y

adjoint/                file/                   report/
define/                 mesh/                   solve/
display/                parallel/               surface/
exit                    plot/                   views/

> 
adjoint/                file/                   report/
define/                 mesh/                   solve/
display/                parallel/               surface/
exit                    plot/                   views/

> ;define viscous model

adjoint/                file/                   report/
define/                 mesh/                   solve/
display/                parallel/               surface/
exit                    plot/                   views/

> /define/models/viscous/ke-rng? y   ;;swirl?
/define/models/viscous/rng-swirl-model? yes

> 
adjoint/                file/                   report/
define/                 mesh/                   solve/
display/                parallel/               surface/
exit                    plot/                   views/

> 
adjoint/                file/                   report/
define/                 mesh/                   solve/
display/                parallel/               surface/
exit                    plot/                   views/

> ;/define/models/viscous/ke-rng-swirl-model? y
;/define/models/viscous/ke-rng/rng-swirl-model? y

adjoint/                file/                   report/
define/                 mesh/                   solve/
display/                parallel/               surface/
exit                    plot/                   views/

> 
adjoint/                file/                   report/
define/                 mesh/                   solve/
display/                parallel/               surface/
exit                    plot/                   views/

> ;/define/models/viscous/ke-realizable? y            

adjoint/                file/                   report/
define/                 mesh/                   solve/
display/                parallel/               surface/
exit                    plot/                   views/

> 
adjoint/                file/                   report/
define/                 mesh/                   solve/
display/                parallel/               surface/
exit                    plot/                   views/

> ; modify boundary-condition types

adjoint/                file/                   report/
define/                 mesh/                   solve/
display/                parallel/               surface/
exit                    plot/                   views/

> ;/define/boundary-conditions/zone-type contact_region-src wall
;/define/boundary-conditions/zone-type contact_region-trg wall
/define/boundary-conditions/zone-type i1 velocity-inlet

> /define/boundary-conditions/zone-type i2 velocity-inlet

> 
adjoint/                file/                   report/
define/                 mesh/                   solve/
display/                parallel/               surface/
exit                    plot/                   views/

> /define/boundary-conditions/zone-type o1 pressure-outlet

> /define/boundary-conditions/zone-type p1 pressure-outlet

> /define/boundary-conditions/zone-type p2 pressure-outlet

> 
adjoint/                file/                   report/
define/                 mesh/                   solve/
display/                parallel/               surface/
exit                    plot/                   views/

> ;set inlet boundary-conditions
/define/boundary-conditions/velocity-inlet (i2 i1)
i2  n n y y n 10 n 0 n n y 5 10

> /define/boundary-conditions/velocity-inlet (i2 i1)
i1  n n y y n 85 n 0 n n y 5 10

> /define/boundary-conditions/pressure-outlet (p2 p1 o1)
o1  y n -5000 n y n n y 5 10 y n n n

> /define/boundary-conditions/pressure-outlet (p2 p1 o1)
p1  y n 0 n y n n y 5 10 y n n n 

> /define/boundary-conditions/pressure-outlet (p2 p1 o1)
p2  y n 0 n y n n y 5 10 y n n n 

> 
adjoint/                file/                   report/
define/                 mesh/                   solve/
display/                parallel/               surface/
exit                    plot/                   views/

> ;;;;n y y n 0 y n 51.96 n 30 n 0 y n 1 n 1
;/define/boundary-conditions/copy-bc inlet front ()
;/define/boundary-conditions/wall lj y motion-bc-moving n n n n 11.11 1 0 0 n n 0 n 0.5

adjoint/                file/                   report/
define/                 mesh/                   solve/
display/                parallel/               surface/
exit                    plot/                   views/

> ; set solution controls
;/solve/set/p-v-coupling 21
;20: SIMPLE
;21: SIMPLEC
;22: PISO
;24: coupled
;/solve/set/under-relaxation pressure 0.5
;/solve/set/under-relaxation density 0.8
;/solve/set/under-relaxation body-force  0.8
;/solve/set/under-relaxation mom 0.5
;/solve/set/under-relaxation turb-viscosity 0.6
;/solve/set/under-relaxation k 0.6
;/solve/set/under-relaxation epsilon 0.6
;/solve/set/under-relaxation body-force 0.8 turb-viscosity 0.8 density 0.8
;/solve/set/discretization-scheme pressure 10 mom 1 k 1 epsilon 1

adjoint/                file/                   report/
define/                 mesh/                   solve/
display/                parallel/               surface/
exit                    plot/                   views/

> ;set pressure
;10:standard
;11:linear
;12:second order
;13:body force weighted
;14:presto!

adjoint/                file/                   report/
define/                 mesh/                   solve/
display/                parallel/               surface/
exit                    plot/                   views/

> ;set mom
;0:firdst order upwind
;1:second order upwind
;2:power law
;4:quick
;6:third-order muscl

adjoint/                file/                   report/
define/                 mesh/                   solve/
display/                parallel/               surface/
exit                    plot/                   views/

> ;set k
;0:firdst order upwind
;1:second order upwind
;2:power law
;4:quick
;6:third-order muscl

adjoint/                file/                   report/
define/                 mesh/                   solve/
display/                parallel/               surface/
exit                    plot/                   views/

> ;set epdst order upwind
;1:second order upwind
;2:power law
;4:silon
;0:firquick
;6:third-order muscl
;;;;;;;;;;;;;;;;;;;;;;;;;;;;;;;
;;;;;;;;;;;;;;;;;;;;;;;;;;;;;;set monitor point line surface
;;;;;;;;;;;;;;;;;;;;;;;;;;;;;;
/surface/point-surface/ cirPoint1 1.8 2 7

> /surface/point-surface/ cirPoint2 1.5 2 7

> /surface/point-surface/ cirPoint3 1 2 7

> /surface/point-surface/ cirPoint4 0 2 7

> /surface/point-surface/ cirPoint1_synYZ -1.8 2 7

> /surface/point-surface/ cirPoint2_synYZ -1.5 2 7

> /surface/point-surface/ cirPoint3_synYZ -1 2 7

> /surface/point-surface/ cirPoint1_synO -1.8 -2 7

> /surface/point-surface/ cirPoint2_synO -1.5 -2 7

> /surface/point-surface/ cirPoint3_synO -1 -2 7

> 
adjoint/                file/                   report/
define/                 mesh/                   solve/
display/                parallel/               surface/
exit                    plot/                   views/

> /surface/line-surface/ line_1 0 0 2 0 0 7

> 
adjoint/                file/                   report/
define/                 mesh/                   solve/
display/                parallel/               surface/
exit                    plot/                   views/

> /surface/line-surface/ line_2 1 2 2 1 2 7

> /surface/line-surface/ line_2_synYZ -1 2 2 -1 2 7

> 
adjoint/                file/                   report/
define/                 mesh/                   solve/
display/                parallel/               surface/
exit                    plot/                   views/

> /surface/line-surface/ line_3 1.5 2 2 1.5 2 7

> /surface/line-surface/ line_3_synYZ -1.5 2 2 -1.5 2 7

> 
adjoint/                file/                   report/
define/                 mesh/                   solve/
display/                parallel/               surface/
exit                    plot/                   views/

> 
adjoint/                file/                   report/
define/                 mesh/                   solve/
display/                parallel/               surface/
exit                    plot/                   views/

> 
adjoint/                file/                   report/
define/                 mesh/                   solve/
display/                parallel/               surface/
exit                    plot/                   views/

> 
adjoint/                file/                   report/
define/                 mesh/                   solve/
display/                parallel/               surface/
exit                    plot/                   views/

> 
adjoint/                file/                   report/
define/                 mesh/                   solve/
display/                parallel/               surface/
exit                    plot/                   views/

> /surface/plane-slice/ YuanPian_0_0_3 0 0 1 3

> /surface/plane-slice/ YuanPian_0_0_4 0 0 1 4

> /surface/plane-slice/ YuanPian_0_0_5 0 0 1 5

> /surface/plane-slice/ YuanPian_0_0_6 0 0 1 6

> /surface/plane-slice/ YuanPian_0_0_7 0 0 1 7

> 
adjoint/                file/                   report/
define/                 mesh/                   solve/
display/                parallel/               surface/
exit                    plot/                   views/

> /surface/transform-surface/ 10 ()
Center Of Rotation
 0 0 0 
Angle of Rotation
0 0 0 
Translation Distance
0 0 0 0 xiKou 

> 
adjoint/                file/                   report/
define/                 mesh/                   solve/
display/                parallel/               surface/
exit                    plot/                   views/

> 
adjoint/                file/                   report/
define/                 mesh/                   solve/
display/                parallel/               surface/
exit                    plot/                   views/

> 
adjoint/                file/                   report/
define/                 mesh/                   solve/
display/                parallel/               surface/
exit                    plot/                   views/

> 
adjoint/                file/                   report/
define/                 mesh/                   solve/
display/                parallel/               surface/
exit                    plot/                   views/

> ;/solve/monitors/surface/set-monitor miao_V_huan_2 ? velocity-magnitude miao31 miao32 miao33 miao34 miao35 miao36   n n y miao_V_huan_2 100

adjoint/                file/                   report/
define/                 mesh/                   solve/
display/                parallel/               surface/
exit                    plot/                   views/

> 
adjoint/                file/                   report/
define/                 mesh/                   solve/
display/                parallel/               surface/
exit                    plot/                   views/

> /solve/monitors/surface/set-monitor cirPoint1  "Sum" velocity-magnitude cirPoint1 () n n y E:\LGF\Sim\task\0826_1\P_85\txtData\cirPoint1_-5000.txt 100
Information: Converting monitor cirpoint1 to report definition.

> /solve/monitors/surface/set-monitor cirPoint2  "Sum" velocity-magnitude cirPoint2 () n n y E:\LGF\Sim\task\0826_1\P_85\txtData\cirPoint2_-5000.txt 100
Information: Converting monitor cirpoint2 to report definition.

> /solve/monitors/surface/set-monitor cirPoint3  "Sum" velocity-magnitude cirPoint3 () n n y E:\LGF\Sim\task\0826_1\P_85\txtData\cirPoint3_-5000.txt 100
Information: Converting monitor cirpoint3 to report definition.

> /solve/monitors/surface/set-monitor cirPoint1-2  "Sum" velocity-magnitude cirPoint1 cirPoint2 () n n y E:\LGF\Sim\task\0826_1\P_85\txtData\cirPoint1-2_-5000.txt 100
Information: Converting monitor cirpoint1-2 to report definition.

> 
adjoint/                file/                   report/
define/                 mesh/                   solve/
display/                parallel/               surface/
exit                    plot/                   views/

> /solve/monitors/surface/set-monitor line_1   "Facet Average" velocity-magnitude line_1 () n n y E:\LGF\Sim\task\0826_1\P_85\txtData\line_1_-5000.txt 100
Information: Converting monitor line_1 to report definition.

> /solve/monitors/surface/set-monitor line_2   "Facet Average" velocity-magnitude line_2 () n n y E:\LGF\Sim\task\0826_1\P_85\txtData\line_2_-5000.txt 100
Information: Converting monitor line_2 to report definition.

> 
adjoint/                file/                   report/
define/                 mesh/                   solve/
display/                parallel/               surface/
exit                    plot/                   views/

> /solve/monitors/surface/set-monitor YuanPian_0_0_5   "Facet Average" velocity-magnitude YuanPian_0_0_5 () n n y E:\LGF\Sim\task\0826_1\P_85\txtData\YuanPian_0_0_5_-5000.txt 100
Information: Converting monitor yuanpian_0_0_5 to report definition.

> 
adjoint/                file/                   report/
define/                 mesh/                   solve/
display/                parallel/               surface/
exit                    plot/                   views/

> /solve/monitors/surface/set-monitor xiKou   "Facet Average" velocity-magnitude xiKou () n n y E:\LGF\Sim\task\0826_1\P_85\txtData\xiKou_-5000.txt 100
Information: Converting monitor xikou to report definition.

> 
adjoint/                file/                   report/
define/                 mesh/                   solve/
display/                parallel/               surface/
exit                    plot/                   views/

> ;/solve/monitors/surface/set-monitor miao_V_huan_4  "Sum" velocity-magnitude miao37 () n n y E:\LGF\Sim\task\0826_1\P_85\txtData\miao_V_huan_4_-5000.txt 100

adjoint/                file/                   report/
define/                 mesh/                   solve/
display/                parallel/               surface/
exit                    plot/                   views/

> ;set monitor residuals
/solve/monitors/residual/convergence-criteria 0.000001 0.000001 0.000001 0.000001 0.000001 0.000001

> 
adjoint/                file/                   report/
define/                 mesh/                   solve/
display/                parallel/               surface/
exit                    plot/                   views/

> ;set force monitors
;compile C
;/define/user-defined/compiled-functions/compile libudf yes FandMmonitor.c "" "" 
; load C
;/define/user-defined/compiled-functions/load libudf
;;    set hook
;/define/user-defined/function-hooks/execute-at-end "force_and_moment_print::libudf" "" 

adjoint/                file/                   report/
define/                 mesh/                   solve/
display/                parallel/               surface/
exit                    plot/                   views/

> ;/solve/monitors/force/set-drag-monitor cx y che1 zxj1 zxj2 che2 zxj3 zxj4 che3 zxj5 zxj6 () n y "cx-CRH380A" n y 1 0 0
;/solve/monitors/force/set-drag-monitor cy y che1 zxj1 zxj2 che2 zxj3 zxj4 che3 zxj5 zxj6 () n y "cy-1D-30" n y 0 1 0
;/solve/monitors/force/set-drag-monitor cz y che1 zxj1 zxj2 che2 zxj3 zxj4 che3 zxj5 zxj6 () n y "cz-CRH380A" n y 0 0 1

adjoint/                file/                   report/
define/                 mesh/                   solve/
display/                parallel/               surface/
exit                    plot/                   views/

> ;/solve/monitors/force/set-moment-monitor mx y che1 zxj1 zxj2 fd1 che2 zxj3 zxj4 fd2 che3 zxj5 zxj6 () n y "mx-1D-30" n y 0 0 0 1 0 0
;/solve/monitors/force/set-moment-monitor my y che1 zxj1 zxj2 fd1 che2 zxj3 zxj4 fd2 che3 zxj5 zxj6 () n y "my-1D-30" n y 0 0 0 0 1 0
;/solve/monitors/force/set-moment-monitor mz y che1 zxj1 zxj2 fd1 che2 zxj3 zxj4 fd2 che3 zxj5 zxj6 () n y "mz-1D-30" n y 0 0 0 0 0 1

adjoint/                file/                   report/
define/                 mesh/                   solve/
display/                parallel/               surface/
exit                    plot/                   views/

> 
adjoint/                file/                   report/
define/                 mesh/                   solve/
display/                parallel/               surface/
exit                    plot/                   views/

> ;init solve set
/solve/initialize/reference-frame Current Reference Frame : Relative to Cell Zoneabsolute

> /solve/initialize/initialize-flow

> ;solve/set/time-step 0.00005
/solve/iterate 500

  iter  continuity  x-velocity  y-velocity  z-velocity           k     epsilon     time/iter
     1  1.0000e+00  1.0570e+04  9.2552e+02  1.6522e+04  2.1113e+00  1.8120e+03  0:16:38  499

 turbulent viscosity limited to viscosity ratio of 1.000000e+05 in 3 cells 

 Reversed flow on 4385 faces (100.0% area) of pressure-outlet 24.

 Reversed flow on 2646 faces (100.0% area) of pressure-outlet 25.
     2  5.9401e-01  9.9898e-03  8.6195e-03  2.6169e-02  2.8910e-01  2.5153e+00  0:18:16  498

 turbulent viscosity limited to viscosity ratio of 1.000000e+05 in 14 cells 

 Reversed flow on 29 faces (4.9% area) of pressure-outlet 22.

 Reversed flow on 3736 faces (83.0% area) of pressure-outlet 24.
     3  7.3055e-01  2.6021e-02  2.3435e-02  3.2553e-02  3.6275e-01  8.7442e-01  0:17:54  497

 Reversed flow on 30 faces (5.5% area) of pressure-outlet 22.

 Reversed flow on 2511 faces (64.9% area) of pressure-outlet 24.

 Reversed flow on 2436 faces (89.7% area) of pressure-outlet 25.
     4  5.5578e-01  1.0592e-02  1.0185e-02  1.7499e-02  1.5396e-01  5.9207e-01  0:15:56  496

 Reversed flow on 29 faces (5.5% area) of pressure-outlet 22.

 Reversed flow on 2303 faces (60.0% area) of pressure-outlet 24.

 Reversed flow on 18 faces (0.2% area) of pressure-outlet 25.
     5  5.4763e-01  1.1469e-02  1.0609e-02  1.0796e-02  9.7758e-02  4.7223e-01  0:14:22  495

 Reversed flow on 7 faces (1.4% area) of pressure-outlet 22.

 Reversed flow on 3441 faces (79.0% area) of pressure-outlet 24.

 Reversed flow on 566 faces (17.0% area) of pressure-outlet 25.
     6  4.4471e-01  8.3958e-03  7.8977e-03  8.8132e-03  5.3004e-02  3.1956e-01  0:16:25  494

 Reversed flow on 3 faces (0.6% area) of pressure-outlet 22.

 Reversed flow on 2830 faces (70.2% area) of pressure-outlet 24.

 Reversed flow on 98 faces (1.2% area) of pressure-outlet 25.
     7  3.9884e-01  6.9904e-03  6.3814e-03  6.0371e-03  2.9478e-02  1.5301e-01  0:16:24  493

 Reversed flow on 3334 faces (79.2% area) of pressure-outlet 24.

 Reversed flow on 911 faces (31.3% area) of pressure-outlet 25.
     8  3.5846e-01  6.3421e-03  5.7413e-03  5.6720e-03  2.0837e-02  1.2777e-01  0:14:44  492

 Reversed flow on 3186 faces (78.1% area) of pressure-outlet 24.

 Reversed flow on 992 faces (38.9% area) of pressure-outlet 25.
     9  3.1849e-01  5.3340e-03  4.7405e-03  4.5547e-03  1.6850e-02  1.0296e-01  0:15:02  491

 turbulent viscosity limited to viscosity ratio of 1.000000e+05 in 6725 cells 

 Reversed flow on 3942 faces (91.5% area) of pressure-outlet 24.

 Reversed flow on 1099 faces (45.9% area) of pressure-outlet 25.
    10  2.9906e-01  4.9452e-03  4.4981e-03  4.3039e-03  1.2407e-02  7.4207e-02  0:15:16  490

 turbulent viscosity limited to viscosity ratio of 1.000000e+05 in 9362 cells 

 Reversed flow on 4125 faces (94.4% area) of pressure-outlet 24.

 Reversed flow on 1075 faces (51.2% area) of pressure-outlet 25.
    11  2.6811e-01  4.2060e-03  3.8718e-03  3.9053e-03  1.0568e-02  5.8154e-02  0:15:27  489

 Reversed flow on 4284 faces (97.3% area) of pressure-outlet 24.

 Reversed flow on 1183 faces (56.9% area) of pressure-outlet 25.

  iter  continuity  x-velocity  y-velocity  z-velocity           k     epsilon     time/iter
    12  2.4682e-01  3.9167e-03  3.7344e-03  3.6062e-03  8.0012e-03  3.5754e-02  0:13:58  488

 turbulent viscosity limited to viscosity ratio of 1.000000e+05 in 1 cells 

 Reversed flow on 4330 faces (98.5% area) of pressure-outlet 24.

 Reversed flow on 1338 faces (64.3% area) of pressure-outlet 25.
    13  2.2276e-01  3.4442e-03  3.3589e-03  3.1121e-03  6.5580e-03  2.5455e-02  0:12:46  487

 Reversed flow on 4375 faces (99.7% area) of pressure-outlet 24.

 Reversed flow on 1402 faces (67.4% area) of pressure-outlet 25.
    14  2.0686e-01  3.1674e-03  3.1404e-03  2.8581e-03  6.6413e-03  2.3331e-02  0:11:49  486

 Reversed flow on 4381 faces (99.9% area) of pressure-outlet 24.

 Reversed flow on 1290 faces (62.5% area) of pressure-outlet 25.
    15  1.9357e-01  2.9390e-03  2.9237e-03  2.6608e-03  6.7120e-03  2.2639e-02  0:12:40  485

 Reversed flow on 4377 faces (99.8% area) of pressure-outlet 24.

 Reversed flow on 1176 faces (57.2% area) of pressure-outlet 25.
    16  1.8501e-01  2.8901e-03  2.8565e-03  2.5894e-03  6.7851e-03  2.2407e-02  0:14:57  484

 Reversed flow on 4381 faces (99.9% area) of pressure-outlet 24.

 Reversed flow on 1184 faces (57.8% area) of pressure-outlet 25.
    17  1.7864e-01  2.8081e-03  2.7460e-03  2.5200e-03  6.5311e-03  2.2171e-02  0:15:09  483

 Reversed flow on 4384 faces (100.0% area) of pressure-outlet 24.

 Reversed flow on 1254 faces (60.9% area) of pressure-outlet 25.
    18  1.7300e-01  2.7389e-03  2.6521e-03  2.4790e-03  5.8677e-03  2.1263e-02  0:13:42  482

 Reversed flow on 4385 faces (100.0% area) of pressure-outlet 24.

 Reversed flow on 1268 faces (61.5% area) of pressure-outlet 25.
    19  1.6529e-01  2.5702e-03  2.4703e-03  2.3439e-03  5.1907e-03  1.9356e-02  0:15:45  481

 Reversed flow on 4385 faces (100.0% area) of pressure-outlet 24.

 Reversed flow on 1265 faces (61.2% area) of pressure-outlet 25.
    20  1.5774e-01  2.4580e-03  2.3448e-03  2.2390e-03  4.7064e-03  1.7844e-02  0:15:47  480

 Reversed flow on 4385 faces (100.0% area) of pressure-outlet 24.

 Reversed flow on 1256 faces (60.7% area) of pressure-outlet 25.
    21  1.5084e-01  2.3598e-03  2.2529e-03  2.1376e-03  4.3047e-03  1.7136e-02  0:14:11  479

 Reversed flow on 4385 faces (100.0% area) of pressure-outlet 24.

 Reversed flow on 1254 faces (60.5% area) of pressure-outlet 25.
    22  1.4548e-01  2.2885e-03  2.1985e-03  2.0715e-03  3.9508e-03  1.5943e-02  0:12:55  478

 Reversed flow on 4385 faces (100.0% area) of pressure-outlet 24.

 Reversed flow on 1264 faces (61.0% area) of pressure-outlet 25.

  iter  continuity  x-velocity  y-velocity  z-velocity           k     epsilon     time/iter
    23  1.4164e-01  2.2430e-03  2.1574e-03  2.0284e-03  3.5966e-03  1.4247e-02  0:11:54  477

 Reversed flow on 4385 faces (100.0% area) of pressure-outlet 24.

 Reversed flow on 1294 faces (62.4% area) of pressure-outlet 25.
    24  1.3915e-01  2.2146e-03  2.1303e-03  2.0028e-03  3.3177e-03  1.2668e-02  0:12:41  476

 Reversed flow on 4385 faces (100.0% area) of pressure-outlet 24.

 Reversed flow on 1331 faces (64.0% area) of pressure-outlet 25.
    25  1.3732e-01  2.1860e-03  2.1141e-03  1.9830e-03  3.0882e-03  1.1280e-02  0:11:42  475

 Reversed flow on 4385 faces (100.0% area) of pressure-outlet 24.

 Reversed flow on 1367 faces (65.6% area) of pressure-outlet 25.
    26  1.3631e-01  2.1610e-03  2.0955e-03  1.9684e-03  2.8968e-03  1.0030e-02  0:12:30  474

 Reversed flow on 4385 faces (100.0% area) of pressure-outlet 24.

 Reversed flow on 1385 faces (66.5% area) of pressure-outlet 25.
    27  1.3596e-01  2.1376e-03  2.0786e-03  1.9528e-03  2.7501e-03  8.9880e-03  0:13:08  473

 Reversed flow on 4385 faces (100.0% area) of pressure-outlet 24.

 Reversed flow on 1403 faces (67.3% area) of pressure-outlet 25.
    28  1.3603e-01  2.1180e-03  2.0555e-03  1.9397e-03  2.6443e-03  8.3239e-03  0:13:38  472

 Reversed flow on 4385 faces (100.0% area) of pressure-outlet 24.

 Reversed flow on 1419 faces (68.0% area) of pressure-outlet 25.
    29  1.3601e-01  2.0953e-03  2.0297e-03  1.9104e-03  2.5438e-03  7.8003e-03  0:14:01  471

 Reversed flow on 4385 faces (100.0% area) of pressure-outlet 24.

 Reversed flow on 1444 faces (69.2% area) of pressure-outlet 25.
    30  1.3594e-01  2.0632e-03  2.0064e-03  1.8808e-03  2.4483e-03  7.3474e-03  0:12:46  470

 Reversed flow on 4385 faces (100.0% area) of pressure-outlet 24.

 Reversed flow on 1459 faces (70.0% area) of pressure-outlet 25.
    31  1.3564e-01  2.0185e-03  1.9745e-03  1.8405e-03  2.3855e-03  7.0406e-03  0:13:19  469

 Reversed flow on 4385 faces (100.0% area) of pressure-outlet 24.

 Reversed flow on 1470 faces (70.4% area) of pressure-outlet 25.
    32  1.3485e-01  1.9710e-03  1.9371e-03  1.8014e-03  2.3356e-03  6.9098e-03  0:13:45  468

 turbulent viscosity limited to viscosity ratio of 1.000000e+05 in 1 cells 

 Reversed flow on 4385 faces (100.0% area) of pressure-outlet 24.

 Reversed flow on 1480 faces (70.9% area) of pressure-outlet 25.
    33  1.3388e-01  1.9287e-03  1.9007e-03  1.7665e-03  2.2958e-03  6.8311e-03  0:12:32  467

 turbulent viscosity limited to viscosity ratio of 1.000000e+05 in 2 cells 

 Reversed flow on 4385 faces (100.0% area) of pressure-outlet 24.

 Reversed flow on 1490 faces (71.4% area) of pressure-outlet 25.

  iter  continuity  x-velocity  y-velocity  z-velocity           k     epsilon     time/iter
    34  1.3328e-01  1.8999e-03  1.8629e-03  1.7415e-03  2.2811e-03  6.9426e-03  0:11:33  466

 turbulent viscosity limited to viscosity ratio of 1.000000e+05 in 4 cells 

 Reversed flow on 4385 faces (100.0% area) of pressure-outlet 24.

 Reversed flow on 1509 faces (72.3% area) of pressure-outlet 25.
    35  1.3284e-01  1.8831e-03  1.8334e-03  1.7255e-03  2.3001e-03  7.1298e-03  0:10:47  465

 turbulent viscosity limited to viscosity ratio of 1.000000e+05 in 14 cells 

 Reversed flow on 4385 faces (100.0% area) of pressure-outlet 24.

 Reversed flow on 1515 faces (72.6% area) of pressure-outlet 25.
    36  1.3256e-01  1.8773e-03  1.8172e-03  1.7226e-03  2.3446e-03  7.3940e-03  0:10:09  464

 turbulent viscosity limited to viscosity ratio of 1.000000e+05 in 33 cells 

 Reversed flow on 4 faces (0.8% area) of pressure-outlet 22.

 Reversed flow on 4385 faces (100.0% area) of pressure-outlet 24.

 Reversed flow on 1524 faces (73.0% area) of pressure-outlet 25.
    37  1.3282e-01  1.8949e-03  1.8222e-03  1.7318e-03  2.4289e-03  7.8758e-03  0:11:11  463

 turbulent viscosity limited to viscosity ratio of 1.000000e+05 in 30 cells 

 Reversed flow on 6 faces (1.1% area) of pressure-outlet 22.

 Reversed flow on 4385 faces (100.0% area) of pressure-outlet 24.

 Reversed flow on 1522 faces (73.0% area) of pressure-outlet 25.
    38  1.3370e-01  1.9308e-03  1.8457e-03  1.7582e-03  2.5640e-03  8.2831e-03  0:10:28  462

 turbulent viscosity limited to viscosity ratio of 1.000000e+05 in 40 cells 

 Reversed flow on 12 faces (2.0% area) of pressure-outlet 22.

 Reversed flow on 4385 faces (100.0% area) of pressure-outlet 24.

 Reversed flow on 1534 faces (73.5% area) of pressure-outlet 25.
    39  1.3531e-01  1.9902e-03  1.8900e-03  1.8115e-03  2.7599e-03  8.9348e-03  0:11:26  461

 turbulent viscosity limited to viscosity ratio of 1.000000e+05 in 29 cells 

 Reversed flow on 17 faces (2.7% area) of pressure-outlet 22.

 Reversed flow on 4385 faces (100.0% area) of pressure-outlet 24.

 Reversed flow on 1537 faces (73.6% area) of pressure-outlet 25.
    40  1.3760e-01  2.0733e-03  1.9642e-03  1.8854e-03  3.0189e-03  9.9015e-03  0:12:12  460

 turbulent viscosity limited to viscosity ratio of 1.000000e+05 in 25 cells 

 Reversed flow on 22 faces (3.5% area) of pressure-outlet 22.

 Reversed flow on 4385 faces (100.0% area) of pressure-outlet 24.

 Reversed flow on 1541 faces (73.8% area) of pressure-outlet 25.
    41  1.4107e-01  2.1931e-03  2.0662e-03  1.9824e-03  3.3681e-03  1.1278e-02  0:11:16  459

 turbulent viscosity limited to viscosity ratio of 1.000000e+05 in 427 cells 

 Reversed flow on 28 faces (4.4% area) of pressure-outlet 22.

 Reversed flow on 4385 faces (100.0% area) of pressure-outlet 24.

 Reversed flow on 1541 faces (73.8% area) of pressure-outlet 25.
    42  1.4586e-01  2.3552e-03  2.2137e-03  2.1166e-03  3.8058e-03  1.2793e-02  0:12:03  458

 turbulent viscosity limited to viscosity ratio of 1.000000e+05 in 9310 cells 

 Reversed flow on 32 faces (5.0% area) of pressure-outlet 22.

 Reversed flow on 4385 faces (100.0% area) of pressure-outlet 24.

 Reversed flow on 1545 faces (73.9% area) of pressure-outlet 25.
    43  1.5163e-01  2.5603e-03  2.3943e-03  2.2925e-03  1.0318e-02  1.4821e-01  0:12:40  457
        Stabilizing pressure coupled to enhance linear solver robustness.

 turbulent viscosity limited to viscosity ratio of 1.000000e+05 in 15620 cells 

 Reversed flow on 37 faces (5.7% area) of pressure-outlet 22.

 Reversed flow on 4383 faces (99.9% area) of pressure-outlet 24.

 Reversed flow on 1553 faces (74.2% area) of pressure-outlet 25.
    44  1.6212e-01  3.0519e-03  2.7970e-03  2.8067e-03  9.3253e-02  1.9121e+02  0:22:16  456
        Stabilizing pressure coupled to enhance linear solver robustness.

 turbulent viscosity limited to viscosity ratio of 1.000000e+05 in 30370 cells 

 Reversed flow on 43 faces (6.8% area) of pressure-outlet 22.

 Reversed flow on 4121 faces (94.1% area) of pressure-outlet 24.

 Reversed flow on 1563 faces (74.7% area) of pressure-outlet 25.

  iter  continuity  x-velocity  y-velocity  z-velocity           k     epsilon     time/iter
    45  1.7780e-01  3.5488e-03  3.3118e-03  7.4196e-03  6.1464e-01  4.2987e+02  0:35:58  455
        Stabilizing pressure coupled to enhance linear solver robustness.

 turbulent viscosity limited to viscosity ratio of 1.000000e+05 in 14548 cells 

 Reversed flow on 44 faces (6.9% area) of pressure-outlet 22.

 Reversed flow on 4047 faces (92.3% area) of pressure-outlet 24.

 Reversed flow on 1564 faces (74.8% area) of pressure-outlet 25.
    46  2.0710e-01  1.9733e-02  1.7828e-02  2.0004e-02  9.4549e-01  1.3676e+00  0:42:20  454

 turbulent viscosity limited to viscosity ratio of 1.000000e+05 in 10113 cells 

 Reversed flow on 46 faces (7.2% area) of pressure-outlet 22.

 Reversed flow on 3909 faces (88.6% area) of pressure-outlet 24.

 Reversed flow on 1490 faces (71.4% area) of pressure-outlet 25.
    47  2.1488e-01  4.9696e-03  5.0300e-03  5.0247e-03  8.1467e-01  7.2799e-01  0:36:49  453

 turbulent viscosity limited to viscosity ratio of 1.000000e+05 in 6365 cells 

 Reversed flow on 49 faces (7.7% area) of pressure-outlet 22.

 Reversed flow on 3614 faces (81.4% area) of pressure-outlet 24.

 Reversed flow on 1562 faces (74.7% area) of pressure-outlet 25.
    48  2.2255e-01  4.4685e-03  4.3564e-03  4.4260e-03  5.3404e-01  7.3729e-01  0:30:54  452

 turbulent viscosity limited to viscosity ratio of 1.000000e+05 in 2064 cells 

 Reversed flow on 53 faces (8.3% area) of pressure-outlet 22.

 Reversed flow on 3132 faces (70.5% area) of pressure-outlet 24.

 Reversed flow on 1545 faces (74.0% area) of pressure-outlet 25.
    49  2.3136e-01  4.0825e-03  4.0635e-03  4.0546e-03  2.5400e-01  5.7911e-01  0:27:40  451

 turbulent viscosity limited to viscosity ratio of 1.000000e+05 in 745 cells 

 Reversed flow on 53 faces (8.4% area) of pressure-outlet 22.

 Reversed flow on 3439 faces (77.7% area) of pressure-outlet 24.

 Reversed flow on 1541 faces (73.8% area) of pressure-outlet 25.
    50  2.3420e-01  3.7743e-03  3.7442e-03  3.8698e-03  1.1331e-01  3.9411e-01  0:25:05  450

 turbulent viscosity limited to viscosity ratio of 1.000000e+05 in 268 cells 

 Reversed flow on 59 faces (9.5% area) of pressure-outlet 22.

 Reversed flow on 3945 faces (89.7% area) of pressure-outlet 24.

 Reversed flow on 1537 faces (73.6% area) of pressure-outlet 25.
    51  2.3987e-01  3.6020e-03  3.5926e-03  3.6314e-03  5.3561e-02  1.6676e-01  0:23:01  449

 turbulent viscosity limited to viscosity ratio of 1.000000e+05 in 63 cells 

 Reversed flow on 62 faces (10.0% area) of pressure-outlet 22.

 Reversed flow on 4002 faces (91.1% area) of pressure-outlet 24.

 Reversed flow on 1539 faces (73.7% area) of pressure-outlet 25.
    52  2.4629e-01  3.4623e-03  3.4815e-03  3.5165e-03  2.2964e-02  8.5223e-02  0:19:52  448

 turbulent viscosity limited to viscosity ratio of 1.000000e+05 in 88 cells 

 Reversed flow on 60 faces (9.7% area) of pressure-outlet 22.

 Reversed flow on 3864 faces (88.0% area) of pressure-outlet 24.

 Reversed flow on 1543 faces (73.8% area) of pressure-outlet 25.
    53  2.5081e-01  3.4470e-03  3.5077e-03  3.5420e-03  1.3973e-02  4.2744e-02  0:20:20  447

 turbulent viscosity limited to viscosity ratio of 1.000000e+05 in 77 cells 

 Reversed flow on 50 faces (8.1% area) of pressure-outlet 22.

 Reversed flow on 3821 faces (86.8% area) of pressure-outlet 24.

 Reversed flow on 1555 faces (74.4% area) of pressure-outlet 25.
    54  2.5185e-01  3.4470e-03  3.4657e-03  3.5323e-03  1.1119e-02  3.2010e-02  0:17:43  446

 turbulent viscosity limited to viscosity ratio of 1.000000e+05 in 666 cells 

 Reversed flow on 49 faces (7.9% area) of pressure-outlet 22.

 Reversed flow on 3818 faces (86.8% area) of pressure-outlet 24.

 Reversed flow on 1566 faces (75.0% area) of pressure-outlet 25.
    55  2.5068e-01  3.4094e-03  3.3797e-03  3.4796e-03  9.5834e-03  2.6324e-02  0:17:06  445

 turbulent viscosity limited to viscosity ratio of 1.000000e+05 in 123 cells 

 Reversed flow on 43 faces (6.8% area) of pressure-outlet 22.

 Reversed flow on 3772 faces (85.7% area) of pressure-outlet 24.

 Reversed flow on 1584 faces (75.7% area) of pressure-outlet 25.

  iter  continuity  x-velocity  y-velocity  z-velocity           k     epsilon     time/iter
    56  2.4834e-01  3.3974e-03  3.2958e-03  3.4559e-03  9.4870e-03  2.4185e-02  0:15:08  444

 turbulent viscosity limited to viscosity ratio of 1.000000e+05 in 3 cells 

 Reversed flow on 21 faces (3.5% area) of pressure-outlet 22.

 Reversed flow on 3722 faces (84.4% area) of pressure-outlet 24.

 Reversed flow on 1598 faces (76.4% area) of pressure-outlet 25.
    57  2.4352e-01  3.3204e-03  3.1841e-03  3.3757e-03  8.4434e-03  2.2296e-02  0:15:02  443

 Reversed flow on 14 faces (2.4% area) of pressure-outlet 22.

 Reversed flow on 3737 faces (84.8% area) of pressure-outlet 24.

 Reversed flow on 1617 faces (77.2% area) of pressure-outlet 25.
    58  2.4111e-01  3.2672e-03  3.0996e-03  3.2706e-03  7.3342e-03  1.9953e-02  0:14:57  442

 Reversed flow on 10 faces (1.8% area) of pressure-outlet 22.

 Reversed flow on 3819 faces (86.6% area) of pressure-outlet 24.

 Reversed flow on 1635 faces (77.9% area) of pressure-outlet 25.
    59  2.3987e-01  3.2027e-03  3.0223e-03  3.1513e-03  6.4615e-03  1.7645e-02  0:13:24  441

 Reversed flow on 5 faces (1.0% area) of pressure-outlet 22.

 Reversed flow on 3935 faces (88.9% area) of pressure-outlet 24.

 Reversed flow on 1644 faces (78.3% area) of pressure-outlet 25.
    60  2.3532e-01  3.0406e-03  2.8619e-03  2.9591e-03  5.7280e-03  1.6010e-02  0:13:38  440

 Reversed flow on 4007 faces (90.6% area) of pressure-outlet 24.

 Reversed flow on 1660 faces (79.0% area) of pressure-outlet 25.
    61  2.3014e-01  2.9136e-03  2.7433e-03  2.8120e-03  5.1323e-03  1.4379e-02  0:12:20  439

 Reversed flow on 4038 faces (91.3% area) of pressure-outlet 24.

 Reversed flow on 1668 faces (79.2% area) of pressure-outlet 25.
    62  2.2544e-01  2.8001e-03  2.6449e-03  2.6829e-03  4.6296e-03  1.2762e-02  0:11:19  438

 Reversed flow on 4087 faces (92.5% area) of pressure-outlet 24.

 Reversed flow on 1680 faces (79.7% area) of pressure-outlet 25.
    63  2.2026e-01  2.6781e-03  2.5456e-03  2.5597e-03  4.2453e-03  1.1347e-02  0:11:56  437

 Reversed flow on 4145 faces (94.0% area) of pressure-outlet 24.

 Reversed flow on 1679 faces (79.6% area) of pressure-outlet 25.
    64  2.1494e-01  2.5619e-03  2.4511e-03  2.4316e-03  4.0004e-03  1.0496e-02  0:12:26  436

 Reversed flow on 4200 faces (95.3% area) of pressure-outlet 24.

 Reversed flow on 1678 faces (79.6% area) of pressure-outlet 25.
    65  2.0982e-01  2.4483e-03  2.3538e-03  2.3083e-03  3.8157e-03  9.6133e-03  0:11:23  435

 Reversed flow on 4274 faces (97.0% area) of pressure-outlet 24.

 Reversed flow on 1672 faces (79.2% area) of pressure-outlet 25.
    66  2.0435e-01  2.3306e-03  2.2531e-03  2.1937e-03  3.6411e-03  8.9335e-03  0:11:58  434

 Reversed flow on 4328 faces (98.5% area) of pressure-outlet 24.

 Reversed flow on 1662 faces (78.8% area) of pressure-outlet 25.

  iter  continuity  x-velocity  y-velocity  z-velocity           k     epsilon     time/iter
    67  1.9863e-01  2.2059e-03  2.1505e-03  2.0842e-03  3.4352e-03  8.4218e-03  0:12:27  433

 Reversed flow on 4381 faces (99.9% area) of pressure-outlet 24.

 Reversed flow on 1649 faces (78.3% area) of pressure-outlet 25.
    68  1.9360e-01  2.0955e-03  2.0509e-03  1.9817e-03  3.2163e-03  8.0753e-03  0:11:22  432

 Reversed flow on 4384 faces (100.0% area) of pressure-outlet 24.

 Reversed flow on 1635 faces (77.7% area) of pressure-outlet 25.
    69  1.8902e-01  1.9918e-03  1.9665e-03  1.8804e-03  2.9747e-03  7.4730e-03  0:11:57  431

 Reversed flow on 4385 faces (100.0% area) of pressure-outlet 24.

 Reversed flow on 1625 faces (77.3% area) of pressure-outlet 25.
    70  1.8486e-01  1.8991e-03  1.8908e-03  1.7807e-03  2.7770e-03  6.9094e-03  0:12:24  430

 Reversed flow on 4385 faces (100.0% area) of pressure-outlet 24.

 Reversed flow on 1607 faces (76.5% area) of pressure-outlet 25.
    71  1.8035e-01  1.8233e-03  1.8212e-03  1.6900e-03  2.5772e-03  6.4628e-03  0:11:20  429

 Reversed flow on 4385 faces (100.0% area) of pressure-outlet 24.

 Reversed flow on 1604 faces (76.3% area) of pressure-outlet 25.
    72  1.7592e-01  1.7605e-03  1.7552e-03  1.6128e-03  2.4212e-03  6.2683e-03  0:11:54  428

 Reversed flow on 4385 faces (100.0% area) of pressure-outlet 24.

 Reversed flow on 1600 faces (76.2% area) of pressure-outlet 25.
    73  1.7134e-01  1.7109e-03  1.6947e-03  1.5438e-03  2.2464e-03  5.7927e-03  0:10:55  427

 Reversed flow on 4385 faces (100.0% area) of pressure-outlet 24.

 Reversed flow on 1593 faces (75.9% area) of pressure-outlet 25.
    74  1.6724e-01  1.6691e-03  1.6393e-03  1.4904e-03  2.1523e-03  5.5503e-03  0:11:33  426

 Reversed flow on 4385 faces (100.0% area) of pressure-outlet 24.

 Reversed flow on 1589 faces (75.8% area) of pressure-outlet 25.
    75  1.6314e-01  1.6411e-03  1.5867e-03  1.4492e-03  2.0910e-03  5.4703e-03  0:10:38  425

 Reversed flow on 4385 faces (100.0% area) of pressure-outlet 24.

 Reversed flow on 1597 faces (76.1% area) of pressure-outlet 25.
    76  1.5976e-01  1.6172e-03  1.5538e-03  1.4190e-03  2.0840e-03  5.4048e-03  0:11:19  424

 Reversed flow on 4385 faces (100.0% area) of pressure-outlet 24.

 Reversed flow on 1595 faces (76.1% area) of pressure-outlet 25.
    77  1.5772e-01  1.6127e-03  1.5408e-03  1.4035e-03  2.0838e-03  5.4502e-03  0:11:51  423

 Reversed flow on 4385 faces (100.0% area) of pressure-outlet 24.

 Reversed flow on 1589 faces (75.8% area) of pressure-outlet 25.

  iter  continuity  x-velocity  y-velocity  z-velocity           k     epsilon     time/iter
    78  1.5671e-01  1.6085e-03  1.5510e-03  1.4030e-03  2.0904e-03  5.5331e-03  0:12:16  422

 Reversed flow on 4385 faces (100.0% area) of pressure-outlet 24.

 Reversed flow on 1587 faces (75.7% area) of pressure-outlet 25.
    79  1.5608e-01  1.6245e-03  1.5646e-03  1.4106e-03  2.1353e-03  5.8799e-03  0:12:36  421

 Reversed flow on 4385 faces (100.0% area) of pressure-outlet 24.

 Reversed flow on 1586 faces (75.7% area) of pressure-outlet 25.
    80  1.5608e-01  1.6346e-03  1.5863e-03  1.4269e-03  2.1020e-03  5.6582e-03  0:11:27  420

 turbulent viscosity limited to viscosity ratio of 1.000000e+05 in 1 cells 

 Reversed flow on 4385 faces (100.0% area) of pressure-outlet 24.

 Reversed flow on 1582 faces (75.5% area) of pressure-outlet 25.
    81  1.5597e-01  1.6572e-03  1.6029e-03  1.4457e-03  2.1276e-03  5.8559e-03  0:11:56  419

 Reversed flow on 4385 faces (100.0% area) of pressure-outlet 24.

 Reversed flow on 1583 faces (75.5% area) of pressure-outlet 25.
    82  1.5600e-01  1.6721e-03  1.6283e-03  1.4638e-03  2.0812e-03  5.8487e-03  0:10:55  418

 Reversed flow on 4385 faces (100.0% area) of pressure-outlet 24.

 Reversed flow on 1585 faces (75.7% area) of pressure-outlet 25.
    83  1.5604e-01  1.6929e-03  1.6414e-03  1.4799e-03  2.1579e-03  6.0950e-03  0:11:30  417

 Reversed flow on 4385 faces (100.0% area) of pressure-outlet 24.

 Reversed flow on 1584 faces (75.6% area) of pressure-outlet 25.
    84  1.5659e-01  1.6977e-03  1.6651e-03  1.4943e-03  2.0810e-03  5.6657e-03  0:11:57  416

 Reversed flow on 4385 faces (100.0% area) of pressure-outlet 24.

 Reversed flow on 1586 faces (75.7% area) of pressure-outlet 25.
    85  1.5699e-01  1.6994e-03  1.6708e-03  1.5001e-03  2.1494e-03  5.8471e-03  0:12:18  415

 Reversed flow on 4385 faces (100.0% area) of pressure-outlet 24.

 Reversed flow on 1585 faces (75.7% area) of pressure-outlet 25.
    86  1.5717e-01  1.6929e-03  1.6786e-03  1.5022e-03  2.0910e-03  5.7094e-03  0:12:35  414

 Reversed flow on 4385 faces (100.0% area) of pressure-outlet 24.

 Reversed flow on 1586 faces (75.8% area) of pressure-outlet 25.
    87  1.5736e-01  1.6870e-03  1.6737e-03  1.5023e-03  2.1931e-03  6.2189e-03  0:12:47  413

 turbulent viscosity limited to viscosity ratio of 1.000000e+05 in 1 cells 

 Reversed flow on 4385 faces (100.0% area) of pressure-outlet 24.

 Reversed flow on 1587 faces (75.8% area) of pressure-outlet 25.
    88  1.5706e-01  1.6705e-03  1.6706e-03  1.4999e-03  2.1351e-03  6.0459e-03  0:12:57  412

 turbulent viscosity limited to viscosity ratio of 1.000000e+05 in 1 cells 

 Reversed flow on 4385 faces (100.0% area) of pressure-outlet 24.

 Reversed flow on 1588 faces (75.8% area) of pressure-outlet 25.

  iter  continuity  x-velocity  y-velocity  z-velocity           k     epsilon     time/iter
    89  1.5660e-01  1.6536e-03  1.6601e-03  1.4931e-03  2.2064e-03  6.1783e-03  0:13:05  411

 turbulent viscosity limited to viscosity ratio of 1.000000e+05 in 4 cells 

 Reversed flow on 4385 faces (100.0% area) of pressure-outlet 24.

 Reversed flow on 1585 faces (75.7% area) of pressure-outlet 25.
    90  1.5633e-01  1.6391e-03  1.6476e-03  1.4828e-03  2.1701e-03  6.1586e-03  0:13:10  410

 turbulent viscosity limited to viscosity ratio of 1.000000e+05 in 2 cells 

 Reversed flow on 4385 faces (100.0% area) of pressure-outlet 24.

 Reversed flow on 1587 faces (75.7% area) of pressure-outlet 25.
    91  1.5541e-01  1.6189e-03  1.6353e-03  1.4711e-03  2.2503e-03  6.5434e-03  0:11:52  409

 turbulent viscosity limited to viscosity ratio of 1.000000e+05 in 21 cells 

 Reversed flow on 4385 faces (100.0% area) of pressure-outlet 24.

 Reversed flow on 1589 faces (75.8% area) of pressure-outlet 25.
    92  1.5415e-01  1.6059e-03  1.6219e-03  1.4574e-03  2.2408e-03  6.5833e-03  0:12:12  408

 turbulent viscosity limited to viscosity ratio of 1.000000e+05 in 12 cells 

 Reversed flow on 4385 faces (100.0% area) of pressure-outlet 24.

 Reversed flow on 1588 faces (75.8% area) of pressure-outlet 25.
    93  1.5355e-01  1.5860e-03  1.6096e-03  1.4435e-03  2.3254e-03  6.6340e-03  0:11:05  407

 turbulent viscosity limited to viscosity ratio of 1.000000e+05 in 1 cells 

 Reversed flow on 4385 faces (100.0% area) of pressure-outlet 24.

 Reversed flow on 1588 faces (75.8% area) of pressure-outlet 25.
    94  1.5314e-01  1.5845e-03  1.5917e-03  1.4320e-03  2.3516e-03  6.7649e-03  0:11:33  406

 turbulent viscosity limited to viscosity ratio of 1.000000e+05 in 1 cells 

 Reversed flow on 4385 faces (100.0% area) of pressure-outlet 24.

 Reversed flow on 1590 faces (75.9% area) of pressure-outlet 25.
    95  1.5344e-01  1.5746e-03  1.5832e-03  1.4277e-03  2.3347e-03  6.6311e-03  0:10:34  405

 Reversed flow on 4385 faces (100.0% area) of pressure-outlet 24.

 Reversed flow on 1587 faces (75.8% area) of pressure-outlet 25.
    96  1.5344e-01  1.5783e-03  1.5658e-03  1.4198e-03  2.3241e-03  6.7387e-03  0:09:47  404

 Reversed flow on 4385 faces (100.0% area) of pressure-outlet 24.

 Reversed flow on 1590 faces (75.9% area) of pressure-outlet 25.
    97  1.5368e-01  1.5611e-03  1.5521e-03  1.4047e-03  2.2680e-03  6.5006e-03  0:10:30  403

 Reversed flow on 4385 faces (100.0% area) of pressure-outlet 24.

 Reversed flow on 1586 faces (75.7% area) of pressure-outlet 25.
    98  1.5308e-01  1.5539e-03  1.5217e-03  1.3808e-03  2.2398e-03  6.4727e-03  0:11:03  402

 Reversed flow on 4385 faces (100.0% area) of pressure-outlet 24.

 Reversed flow on 1589 faces (75.9% area) of pressure-outlet 25.
    99  1.5205e-01  1.5300e-03  1.4990e-03  1.3556e-03  2.1657e-03  6.1943e-03  0:10:10  401

 Reversed flow on 4385 faces (100.0% area) of pressure-outlet 24.

 Reversed flow on 1586 faces (75.7% area) of pressure-outlet 25.

  iter  continuity  x-velocity  y-velocity  z-velocity           k     epsilon     time/iter
   100  1.5048e-01  1.5202e-03  1.4668e-03  1.3281e-03  2.2122e-03  6.6953e-03  0:10:46  400

 Reversed flow on 4385 faces (100.0% area) of pressure-outlet 24.

 Reversed flow on 1586 faces (75.7% area) of pressure-outlet 25.
   101  1.4902e-01  1.4981e-03  1.4498e-03  1.3104e-03  2.1709e-03  6.4679e-03  0:13:55  399

 Reversed flow on 4385 faces (100.0% area) of pressure-outlet 24.

 Reversed flow on 1585 faces (75.7% area) of pressure-outlet 25.
   102  1.4744e-01  1.4942e-03  1.4335e-03  1.2994e-03  2.2464e-03  6.6388e-03  0:12:26  398

 Reversed flow on 4385 faces (100.0% area) of pressure-outlet 24.

 Reversed flow on 1583 faces (75.6% area) of pressure-outlet 25.
   103  1.4574e-01  1.4844e-03  1.4387e-03  1.2991e-03  2.2979e-03  6.7618e-03  0:11:15  397

 Reversed flow on 4385 faces (100.0% area) of pressure-outlet 24.

 Reversed flow on 1583 faces (75.6% area) of pressure-outlet 25.
   104  1.4489e-01  1.4999e-03  1.4521e-03  1.3097e-03  2.4205e-03  7.5093e-03  0:11:37  396

 Reversed flow on 4385 faces (100.0% area) of pressure-outlet 24.

 Reversed flow on 1581 faces (75.5% area) of pressure-outlet 25.
   105  1.4468e-01  1.5163e-03  1.4714e-03  1.3270e-03  2.3905e-03  7.4242e-03  0:10:35  395

 Reversed flow on 4385 faces (100.0% area) of pressure-outlet 24.

 Reversed flow on 1580 faces (75.4% area) of pressure-outlet 25.
   106  1.4495e-01  1.5341e-03  1.4832e-03  1.3441e-03  2.4305e-03  7.5325e-03  0:11:04  394

 Reversed flow on 4385 faces (100.0% area) of pressure-outlet 24.

 Reversed flow on 1579 faces (75.4% area) of pressure-outlet 25.
   107  1.4509e-01  1.5490e-03  1.4860e-03  1.3618e-03  2.4257e-03  7.5206e-03  0:11:27  393

 Reversed flow on 4385 faces (100.0% area) of pressure-outlet 24.

 Reversed flow on 1579 faces (75.4% area) of pressure-outlet 25.
   108  1.4566e-01  1.5616e-03  1.4889e-03  1.3795e-03  2.4428e-03  7.6969e-03  0:10:27  392

 Reversed flow on 4385 faces (100.0% area) of pressure-outlet 24.

 Reversed flow on 1578 faces (75.4% area) of pressure-outlet 25.
   109  1.4614e-01  1.5663e-03  1.4860e-03  1.3951e-03  2.3790e-03  7.5746e-03  0:10:57  391

 Reversed flow on 4385 faces (100.0% area) of pressure-outlet 24.

 Reversed flow on 1577 faces (75.3% area) of pressure-outlet 25.
   110  1.4626e-01  1.5599e-03  1.4896e-03  1.4040e-03  2.3555e-03  7.3730e-03  0:11:20  390

 Reversed flow on 4385 faces (100.0% area) of pressure-outlet 24.

 Reversed flow on 1578 faces (75.3% area) of pressure-outlet 25.

  iter  continuity  x-velocity  y-velocity  z-velocity           k     epsilon     time/iter
   111  1.4663e-01  1.5617e-03  1.4889e-03  1.4082e-03  2.3337e-03  7.2798e-03  0:10:20  389

 Reversed flow on 4385 faces (100.0% area) of pressure-outlet 24.

 Reversed flow on 1579 faces (75.4% area) of pressure-outlet 25.
   112  1.4681e-01  1.5542e-03  1.4947e-03  1.4049e-03  2.3177e-03  7.2721e-03  0:10:50  388

 Reversed flow on 4385 faces (100.0% area) of pressure-outlet 24.

 Reversed flow on 1580 faces (75.4% area) of pressure-outlet 25.
   113  1.4638e-01  1.5513e-03  1.4851e-03  1.4021e-03  2.3190e-03  7.2553e-03  0:09:56  387

 Reversed flow on 4385 faces (100.0% area) of pressure-outlet 24.

 Reversed flow on 1579 faces (75.3% area) of pressure-outlet 25.
   114  1.4615e-01  1.5491e-03  1.4771e-03  1.3988e-03  2.3308e-03  7.5197e-03  0:09:13  386

 Reversed flow on 4385 faces (100.0% area) of pressure-outlet 24.

 Reversed flow on 1580 faces (75.4% area) of pressure-outlet 25.
   115  1.4623e-01  1.5501e-03  1.4631e-03  1.3990e-03  2.3582e-03  7.4652e-03  0:08:38  385

 Reversed flow on 4385 faces (100.0% area) of pressure-outlet 24.

 Reversed flow on 1581 faces (75.4% area) of pressure-outlet 25.
   116  1.4676e-01  1.5434e-03  1.4538e-03  1.3938e-03  2.3132e-03  7.3709e-03  0:08:10  384

 Reversed flow on 4385 faces (100.0% area) of pressure-outlet 24.

 Reversed flow on 1580 faces (75.4% area) of pressure-outlet 25.
   117  1.4740e-01  1.5348e-03  1.4438e-03  1.3879e-03  2.3012e-03  7.3602e-03  0:07:48  383

 Reversed flow on 4385 faces (100.0% area) of pressure-outlet 24.

 Reversed flow on 1580 faces (75.4% area) of pressure-outlet 25.
   118  1.4756e-01  1.5250e-03  1.4409e-03  1.3804e-03  2.2869e-03  7.6518e-03  0:08:46  382

 Reversed flow on 4385 faces (100.0% area) of pressure-outlet 24.

 Reversed flow on 1577 faces (75.2% area) of pressure-outlet 25.
   119  1.4733e-01  1.5135e-03  1.4404e-03  1.3746e-03  2.2614e-03  7.5204e-03  0:08:16  381

 Reversed flow on 4385 faces (100.0% area) of pressure-outlet 24.

 Reversed flow on 1577 faces (75.2% area) of pressure-outlet 25.
   120  1.4667e-01  1.5080e-03  1.4391e-03  1.3695e-03  2.2086e-03  7.4847e-03  0:09:08  380

 Reversed flow on 4385 faces (100.0% area) of pressure-outlet 24.

 Reversed flow on 1576 faces (75.2% area) of pressure-outlet 25.
   121  1.4564e-01  1.5024e-03  1.4353e-03  1.3583e-03  2.1570e-03  7.3690e-03  0:09:49  379

 Reversed flow on 4385 faces (100.0% area) of pressure-outlet 24.

 Reversed flow on 1577 faces (75.2% area) of pressure-outlet 25.

  iter  continuity  x-velocity  y-velocity  z-velocity           k     epsilon     time/iter
   122  1.4406e-01  1.4983e-03  1.4231e-03  1.3392e-03  2.0940e-03  7.4270e-03  0:09:05  378

 Reversed flow on 4385 faces (100.0% area) of pressure-outlet 24.

 Reversed flow on 1575 faces (75.2% area) of pressure-outlet 25.
   123  1.4130e-01  1.4714e-03  1.3984e-03  1.3167e-03  1.9812e-03  7.0763e-03  0:09:46  377

 Reversed flow on 4385 faces (100.0% area) of pressure-outlet 24.

 Reversed flow on 1577 faces (75.3% area) of pressure-outlet 25.
   124  1.3782e-01  1.4453e-03  1.3617e-03  1.2926e-03  1.9163e-03  6.7324e-03  0:10:18  376

 Reversed flow on 4385 faces (100.0% area) of pressure-outlet 24.

 Reversed flow on 1576 faces (75.2% area) of pressure-outlet 25.
   125  1.3412e-01  1.4049e-03  1.3255e-03  1.2669e-03  1.8328e-03  6.4703e-03  0:10:43  375

 Reversed flow on 4385 faces (100.0% area) of pressure-outlet 24.

 Reversed flow on 1575 faces (75.2% area) of pressure-outlet 25.
   126  1.3017e-01  1.3735e-03  1.2875e-03  1.2417e-03  1.7892e-03  6.2428e-03  0:09:48  374

 Reversed flow on 4385 faces (100.0% area) of pressure-outlet 24.

 Reversed flow on 1572 faces (75.1% area) of pressure-outlet 25.
   127  1.2679e-01  1.3323e-03  1.2606e-03  1.2174e-03  1.7166e-03  5.8752e-03  0:09:04  373

 turbulent viscosity limited to viscosity ratio of 1.000000e+05 in 7 cells 

 Reversed flow on 4385 faces (100.0% area) of pressure-outlet 24.

 Reversed flow on 1572 faces (75.1% area) of pressure-outlet 25.
   128  1.2403e-01  1.3021e-03  1.2365e-03  1.1945e-03  1.7094e-03  5.6220e-03  0:09:42  372

 turbulent viscosity limited to viscosity ratio of 1.000000e+05 in 11 cells 

 Reversed flow on 4385 faces (100.0% area) of pressure-outlet 24.

 Reversed flow on 1571 faces (75.0% area) of pressure-outlet 25.
   129  1.2159e-01  1.2705e-03  1.2195e-03  1.1772e-03  1.6900e-03  5.5114e-03  0:10:13  371

 turbulent viscosity limited to viscosity ratio of 1.000000e+05 in 17 cells 

 Reversed flow on 4385 faces (100.0% area) of pressure-outlet 24.

 Reversed flow on 1570 faces (75.0% area) of pressure-outlet 25.
   130  1.1981e-01  1.2460e-03  1.2073e-03  1.1642e-03  1.7256e-03  5.7453e-03  0:10:37  370

 turbulent viscosity limited to viscosity ratio of 1.000000e+05 in 17 cells 

 Reversed flow on 4385 faces (100.0% area) of pressure-outlet 24.

 Reversed flow on 1568 faces (74.9% area) of pressure-outlet 25.
   131  1.1862e-01  1.2312e-03  1.2027e-03  1.1573e-03  1.7651e-03  5.7634e-03  0:09:42  369

 turbulent viscosity limited to viscosity ratio of 1.000000e+05 in 17 cells 

 Reversed flow on 4385 faces (100.0% area) of pressure-outlet 24.

 Reversed flow on 1569 faces (75.0% area) of pressure-outlet 25.
   132  1.1789e-01  1.2281e-03  1.2075e-03  1.1611e-03  1.8818e-03  6.3001e-03  0:08:58  368

 turbulent viscosity limited to viscosity ratio of 1.000000e+05 in 20 cells 

 Reversed flow on 4385 faces (100.0% area) of pressure-outlet 24.

 Reversed flow on 1569 faces (75.0% area) of pressure-outlet 25.

  iter  continuity  x-velocity  y-velocity  z-velocity           k     epsilon     time/iter
   133  1.1786e-01  1.2425e-03  1.2272e-03  1.1776e-03  2.0331e-03  6.9745e-03  0:08:23  367

 turbulent viscosity limited to viscosity ratio of 1.000000e+05 in 10 cells 

 Reversed flow on 4385 faces (100.0% area) of pressure-outlet 24.

 Reversed flow on 1570 faces (75.0% area) of pressure-outlet 25.
   134  1.1876e-01  1.2764e-03  1.2646e-03  1.2099e-03  2.2635e-03  7.8625e-03  0:09:07  366

 turbulent viscosity limited to viscosity ratio of 1.000000e+05 in 6 cells 

 Reversed flow on 4385 faces (100.0% area) of pressure-outlet 24.

 Reversed flow on 1570 faces (75.0% area) of pressure-outlet 25.
   135  1.2089e-01  1.3374e-03  1.3269e-03  1.2580e-03  2.4937e-03  8.7510e-03  0:09:43  365

 Reversed flow on 4385 faces (100.0% area) of pressure-outlet 24.

 Reversed flow on 1569 faces (74.9% area) of pressure-outlet 25.
   136  1.2474e-01  1.4212e-03  1.4090e-03  1.3243e-03  2.7189e-03  9.4460e-03  0:08:58  364

 Reversed flow on 4385 faces (100.0% area) of pressure-outlet 24.

 Reversed flow on 1569 faces (75.0% area) of pressure-outlet 25.
   137  1.2968e-01  1.5174e-03  1.5020e-03  1.3984e-03  2.8909e-03  1.0036e-02  0:09:34  363

 turbulent viscosity limited to viscosity ratio of 1.000000e+05 in 1 cells 

 Reversed flow on 1 face (0.2% area) of pressure-outlet 22.

 Reversed flow on 4385 faces (100.0% area) of pressure-outlet 24.

 Reversed flow on 1566 faces (74.9% area) of pressure-outlet 25.
   138  1.3481e-01  1.6003e-03  1.5936e-03  1.4711e-03  2.9737e-03  9.8225e-03  0:08:51  362

 Reversed flow on 3 faces (0.6% area) of pressure-outlet 22.

 Reversed flow on 4385 faces (100.0% area) of pressure-outlet 24.

 Reversed flow on 1567 faces (74.9% area) of pressure-outlet 25.
   139  1.3887e-01  1.6501e-03  1.6590e-03  1.5303e-03  2.9835e-03  9.3823e-03  0:09:28  361

 Reversed flow on 9 faces (1.4% area) of pressure-outlet 22.

 Reversed flow on 4385 faces (100.0% area) of pressure-outlet 24.

 Reversed flow on 1568 faces (74.9% area) of pressure-outlet 25.
   140  1.4161e-01  1.6735e-03  1.6981e-03  1.5697e-03  2.9126e-03  8.9397e-03  0:09:57  360

 turbulent viscosity limited to viscosity ratio of 1.000000e+05 in 5 cells 

 Reversed flow on 16 faces (2.5% area) of pressure-outlet 22.

 Reversed flow on 4385 faces (100.0% area) of pressure-outlet 24.

 Reversed flow on 1572 faces (75.1% area) of pressure-outlet 25.
   141  1.4322e-01  1.6809e-03  1.7040e-03  1.5833e-03  2.8958e-03  9.0850e-03  0:09:08  359

 turbulent viscosity limited to viscosity ratio of 1.000000e+05 in 46 cells 

 Reversed flow on 16 faces (2.5% area) of pressure-outlet 22.

 Reversed flow on 4385 faces (100.0% area) of pressure-outlet 24.

 Reversed flow on 1575 faces (75.3% area) of pressure-outlet 25.
   142  1.4396e-01  1.6833e-03  1.6984e-03  1.5906e-03  2.8896e-03  8.8503e-03  0:09:40  358

 turbulent viscosity limited to viscosity ratio of 1.000000e+05 in 99 cells 

 Reversed flow on 17 faces (2.5% area) of pressure-outlet 22.

 Reversed flow on 4385 faces (100.0% area) of pressure-outlet 24.

 Reversed flow on 1575 faces (75.3% area) of pressure-outlet 25.
   143  1.4455e-01  1.6962e-03  1.6835e-03  1.6000e-03  3.1147e-03  9.1053e-03  0:10:06  357

 turbulent viscosity limited to viscosity ratio of 1.000000e+05 in 42 cells 

 Reversed flow on 17 faces (2.6% area) of pressure-outlet 22.

 Reversed flow on 4385 faces (100.0% area) of pressure-outlet 24.

 Reversed flow on 1573 faces (75.2% area) of pressure-outlet 25.

  iter  continuity  x-velocity  y-velocity  z-velocity           k     epsilon     time/iter
   144  1.4503e-01  1.7157e-03  1.6810e-03  1.6138e-03  3.2905e-03  9.1390e-03  0:10:26  356

 turbulent viscosity limited to viscosity ratio of 1.000000e+05 in 1 cells 

 Reversed flow on 17 faces (2.7% area) of pressure-outlet 22.

 Reversed flow on 4385 faces (100.0% area) of pressure-outlet 24.

 Reversed flow on 1570 faces (75.1% area) of pressure-outlet 25.
   145  1.4605e-01  1.7311e-03  1.6763e-03  1.6174e-03  3.3435e-03  9.7279e-03  0:09:30  355

 Reversed flow on 16 faces (2.5% area) of pressure-outlet 22.

 Reversed flow on 4385 faces (100.0% area) of pressure-outlet 24.

 Reversed flow on 1570 faces (75.1% area) of pressure-outlet 25.
   146  1.4669e-01  1.7282e-03  1.6705e-03  1.5997e-03  3.1131e-03  9.6626e-03  0:09:56  354

 Reversed flow on 14 faces (2.3% area) of pressure-outlet 22.

 Reversed flow on 4385 faces (100.0% area) of pressure-outlet 24.

 Reversed flow on 1574 faces (75.2% area) of pressure-outlet 25.
   147  1.4707e-01  1.7019e-03  1.6571e-03  1.5731e-03  2.9279e-03  8.9256e-03  0:09:06  353

 Reversed flow on 10 faces (1.4% area) of pressure-outlet 22.

 Reversed flow on 4385 faces (100.0% area) of pressure-outlet 24.

 Reversed flow on 1575 faces (75.3% area) of pressure-outlet 25.
   148  1.4648e-01  1.6773e-03  1.6392e-03  1.5449e-03  2.7656e-03  8.2573e-03  0:09:37  352

 Reversed flow on 7 faces (0.9% area) of pressure-outlet 22.

 Reversed flow on 4385 faces (100.0% area) of pressure-outlet 24.

 Reversed flow on 1576 faces (75.3% area) of pressure-outlet 25.
   149  1.4566e-01  1.6565e-03  1.6285e-03  1.5190e-03  2.7507e-03  8.2048e-03  0:10:00  351

 Reversed flow on 7 faces (0.9% area) of pressure-outlet 22.

 Reversed flow on 4385 faces (100.0% area) of pressure-outlet 24.

 Reversed flow on 1578 faces (75.4% area) of pressure-outlet 25.
   150  1.4464e-01  1.6447e-03  1.6135e-03  1.4965e-03  2.7210e-03  8.4306e-03  0:10:19  350

 Reversed flow on 6 faces (0.8% area) of pressure-outlet 22.

 Reversed flow on 4385 faces (100.0% area) of pressure-outlet 24.

 Reversed flow on 1580 faces (75.5% area) of pressure-outlet 25.
   151  1.4369e-01  1.6331e-03  1.6043e-03  1.4836e-03  2.6817e-03  7.9467e-03  0:09:24  349

 turbulent viscosity limited to viscosity ratio of 1.000000e+05 in 1 cells 

 Reversed flow on 6 faces (0.8% area) of pressure-outlet 22.

 Reversed flow on 4385 faces (100.0% area) of pressure-outlet 24.

 Reversed flow on 1585 faces (75.7% area) of pressure-outlet 25.
   152  1.4278e-01  1.6382e-03  1.5866e-03  1.4749e-03  2.7039e-03  8.4590e-03  0:09:49  348

 Reversed flow on 5 faces (0.7% area) of pressure-outlet 22.

 Reversed flow on 4385 faces (100.0% area) of pressure-outlet 24.

 Reversed flow on 1588 faces (75.8% area) of pressure-outlet 25.
   153  1.4269e-01  1.6341e-03  1.5815e-03  1.4759e-03  2.6996e-03  8.3054e-03  0:08:59  347

 Reversed flow on 4 faces (0.5% area) of pressure-outlet 22.

 Reversed flow on 4385 faces (100.0% area) of pressure-outlet 24.

 Reversed flow on 1592 faces (76.0% area) of pressure-outlet 25.
   154  1.4222e-01  1.6368e-03  1.5751e-03  1.4824e-03  2.7447e-03  8.7084e-03  0:09:28  346

 Reversed flow on 4 faces (0.5% area) of pressure-outlet 22.

 Reversed flow on 4385 faces (100.0% area) of pressure-outlet 24.

 Reversed flow on 1594 faces (76.0% area) of pressure-outlet 25.

  iter  continuity  x-velocity  y-velocity  z-velocity           k     epsilon     time/iter
   155  1.4244e-01  1.6270e-03  1.5878e-03  1.4948e-03  2.7060e-03  8.3371e-03  0:09:51  345

 Reversed flow on 2 faces (0.3% area) of pressure-outlet 22.

 Reversed flow on 4385 faces (100.0% area) of pressure-outlet 24.

 Reversed flow on 1597 faces (76.2% area) of pressure-outlet 25.
   156  1.4339e-01  1.6287e-03  1.6019e-03  1.5121e-03  2.7911e-03  8.7362e-03  0:10:09  344

 Reversed flow on 2 faces (0.3% area) of pressure-outlet 22.

 Reversed flow on 4385 faces (100.0% area) of pressure-outlet 24.

 Reversed flow on 1594 faces (76.0% area) of pressure-outlet 25.
   157  1.4537e-01  1.6235e-03  1.6325e-03  1.5340e-03  2.7546e-03  8.3914e-03  0:09:15  343

 Reversed flow on 4385 faces (100.0% area) of pressure-outlet 24.

 Reversed flow on 1593 faces (76.0% area) of pressure-outlet 25.
   158  1.4800e-01  1.6324e-03  1.6596e-03  1.5561e-03  2.8302e-03  8.6429e-03  0:09:39  342

 Reversed flow on 4385 faces (100.0% area) of pressure-outlet 24.

 Reversed flow on 1594 faces (76.0% area) of pressure-outlet 25.
   159  1.5065e-01  1.6449e-03  1.6890e-03  1.5805e-03  2.7837e-03  8.6380e-03  0:09:58  341

 Reversed flow on 4385 faces (100.0% area) of pressure-outlet 24.

 Reversed flow on 1595 faces (76.1% area) of pressure-outlet 25.
   160  1.5408e-01  1.6586e-03  1.7077e-03  1.6027e-03  2.8575e-03  8.8276e-03  0:09:05  340

 Reversed flow on 4385 faces (100.0% area) of pressure-outlet 24.

 Reversed flow on 1591 faces (75.9% area) of pressure-outlet 25.
   161  1.5754e-01  1.6713e-03  1.7154e-03  1.6167e-03  2.8147e-03  8.5521e-03  0:09:31  339

 Reversed flow on 4385 faces (100.0% area) of pressure-outlet 24.

 Reversed flow on 1585 faces (75.6% area) of pressure-outlet 25.
   162  1.6079e-01  1.6796e-03  1.7171e-03  1.6261e-03  2.8453e-03  8.6514e-03  0:08:43  338

 Reversed flow on 4385 faces (100.0% area) of pressure-outlet 24.

 Reversed flow on 1582 faces (75.5% area) of pressure-outlet 25.
   163  1.6297e-01  1.6983e-03  1.7027e-03  1.6247e-03  2.8369e-03  8.9318e-03  0:09:12  337

 Reversed flow on 4385 faces (100.0% area) of pressure-outlet 24.

 Reversed flow on 1578 faces (75.3% area) of pressure-outlet 25.
   164  1.6453e-01  1.7062e-03  1.6920e-03  1.6195e-03  2.8117e-03  8.9046e-03  0:09:34  336

 Reversed flow on 4385 faces (100.0% area) of pressure-outlet 24.

 Reversed flow on 1576 faces (75.2% area) of pressure-outlet 25.
   165  1.6557e-01  1.7261e-03  1.6665e-03  1.6060e-03  2.7217e-03  8.8310e-03  0:09:52  335

 Reversed flow on 4385 faces (100.0% area) of pressure-outlet 24.

 Reversed flow on 1577 faces (75.3% area) of pressure-outlet 25.

  iter  continuity  x-velocity  y-velocity  z-velocity           k     epsilon     time/iter
   166  1.6731e-01  1.7266e-03  1.6556e-03  1.5893e-03  2.6169e-03  8.6585e-03  0:08:59  334

 Reversed flow on 4385 faces (100.0% area) of pressure-outlet 24.

 Reversed flow on 1575 faces (75.2% area) of pressure-outlet 25.
   167  1.6853e-01  1.7305e-03  1.6347e-03  1.5696e-03  2.5356e-03  8.3392e-03  0:09:23  333

 Reversed flow on 4385 faces (100.0% area) of pressure-outlet 24.

 Reversed flow on 1574 faces (75.2% area) of pressure-outlet 25.
   168  1.6943e-01  1.7117e-03  1.6248e-03  1.5547e-03  2.4354e-03  8.1371e-03  0:08:36  332

 Reversed flow on 4385 faces (100.0% area) of pressure-outlet 24.

 Reversed flow on 1574 faces (75.2% area) of pressure-outlet 25.
   169  1.6917e-01  1.7026e-03  1.6065e-03  1.5332e-03  2.3790e-03  7.9151e-03  0:09:04  331

 Reversed flow on 4385 faces (100.0% area) of pressure-outlet 24.

 Reversed flow on 1572 faces (75.1% area) of pressure-outlet 25.
   170  1.6795e-01  1.6769e-03  1.5963e-03  1.5084e-03  2.2939e-03  7.6421e-03  0:09:26  330

 Reversed flow on 4385 faces (100.0% area) of pressure-outlet 24.

 Reversed flow on 1574 faces (75.1% area) of pressure-outlet 25.
   171  1.6530e-01  1.6576e-03  1.5736e-03  1.4768e-03  2.2975e-03  7.5331e-03  0:09:43  329

 Reversed flow on 4385 faces (100.0% area) of pressure-outlet 24.

 Reversed flow on 1571 faces (75.0% area) of pressure-outlet 25.
   172  1.6199e-01  1.6337e-03  1.5480e-03  1.4534e-03  2.2422e-03  7.3277e-03  0:08:50  328

 Reversed flow on 4385 faces (100.0% area) of pressure-outlet 24.

 Reversed flow on 1573 faces (75.0% area) of pressure-outlet 25.
   173  1.5876e-01  1.6222e-03  1.5306e-03  1.4357e-03  2.2737e-03  7.3399e-03  0:08:08  327

 Reversed flow on 4385 faces (100.0% area) of pressure-outlet 24.

 Reversed flow on 1575 faces (75.1% area) of pressure-outlet 25.
   174  1.5530e-01  1.6135e-03  1.5181e-03  1.4200e-03  2.2957e-03  7.4843e-03  0:08:40  326

 Reversed flow on 4385 faces (100.0% area) of pressure-outlet 24.

 Reversed flow on 1573 faces (75.1% area) of pressure-outlet 25.
   175  1.5251e-01  1.6041e-03  1.5240e-03  1.4169e-03  2.3322e-03  7.7145e-03  0:09:05  325

 Reversed flow on 4385 faces (100.0% area) of pressure-outlet 24.

 Reversed flow on 1577 faces (75.3% area) of pressure-outlet 25.
   176  1.5041e-01  1.6126e-03  1.5397e-03  1.4253e-03  2.3601e-03  7.7563e-03  0:08:19  324

 Reversed flow on 4385 faces (100.0% area) of pressure-outlet 24.

 Reversed flow on 1578 faces (75.3% area) of pressure-outlet 25.

  iter  continuity  x-velocity  y-velocity  z-velocity           k     epsilon     time/iter
   177  1.4886e-01  1.6266e-03  1.5713e-03  1.4444e-03  2.4490e-03  8.0958e-03  0:07:43  323

 Reversed flow on 4385 faces (100.0% area) of pressure-outlet 24.

 Reversed flow on 1582 faces (75.6% area) of pressure-outlet 25.
   178  1.4801e-01  1.6551e-03  1.6117e-03  1.4673e-03  2.5546e-03  8.2796e-03  0:07:13  322

 Reversed flow on 4385 faces (100.0% area) of pressure-outlet 24.

 Reversed flow on 1580 faces (75.5% area) of pressure-outlet 25.
   179  1.4767e-01  1.6814e-03  1.6449e-03  1.5006e-03  2.6827e-03  8.3071e-03  0:07:54  321

 Reversed flow on 4385 faces (100.0% area) of pressure-outlet 24.

 Reversed flow on 1582 faces (75.6% area) of pressure-outlet 25.
   180  1.4748e-01  1.7106e-03  1.6674e-03  1.5328e-03  2.8564e-03  8.4136e-03  0:07:22  320

[...]

 Reversed flow on 4385 faces (100.0% area) of pressure-outlet 24.

 Reversed flow on 1567 faces (75.0% area) of pressure-outlet 25.
   432  1.1655e-01  1.5919e-03  1.5127e-03  1.4726e-03  3.1037e-03  1.1021e-02  0:01:50   68

 Reversed flow on 4385 faces (100.0% area) of pressure-outlet 24.

 Reversed flow on 1566 faces (75.0% area) of pressure-outlet 25.
   433  1.1637e-01  1.6184e-03  1.5628e-03  1.5129e-03  3.4032e-03  1.1649e-02  0:01:54   67

 Reversed flow on 4385 faces (100.0% area) of pressure-outlet 24.

 Reversed flow on 1568 faces (75.0% area) of pressure-outlet 25.
   434  1.1741e-01  1.6700e-03  1.6393e-03  1.5710e-03  3.7420e-03  1.2403e-02  0:01:43   66

 Reversed flow on 4385 faces (100.0% area) of pressure-outlet 24.

 Reversed flow on 1565 faces (74.9% area) of pressure-outlet 25.
   435  1.2028e-01  1.7482e-03  1.7366e-03  1.6514e-03  4.0287e-03  1.2745e-02  0:01:47   65

 Reversed flow on 4385 faces (100.0% area) of pressure-outlet 24.

 Reversed flow on 1569 faces (75.0% area) of pressure-outlet 25.
   436  1.2488e-01  1.8703e-03  1.8296e-03  1.7524e-03  4.4747e-03  1.3357e-02  0:01:37   64

 turbulent viscosity limited to viscosity ratio of 1.000000e+05 in 176 cells 

 Reversed flow on 4385 faces (100.0% area) of pressure-outlet 24.

 Reversed flow on 1567 faces (74.9% area) of pressure-outlet 25.
   437  1.3141e-01  2.0356e-03  1.9442e-03  1.8808e-03  5.1930e-03  1.4709e-02  0:01:42   63

 turbulent viscosity limited to viscosity ratio of 1.000000e+05 in 551 cells 

 Reversed flow on 4385 faces (100.0% area) of pressure-outlet 24.

 Reversed flow on 1575 faces (75.3% area) of pressure-outlet 25.
   438  1.3958e-01  2.2148e-03  2.1248e-03  2.1032e-03  5.6305e-03  1.4649e-02  0:01:45   62
        Stabilizing pressure coupled to enhance linear solver robustness.

 turbulent viscosity limited to viscosity ratio of 1.000000e+05 in 5155 cells 

 Reversed flow on 4385 faces (100.0% area) of pressure-outlet 24.

 Reversed flow on 1581 faces (75.6% area) of pressure-outlet 25.
   439  1.4640e-01  2.2436e-03  2.1871e-03  2.2117e-03  7.4627e-03  6.3975e-02  0:03:00   61
        Stabilizing pressure coupled to enhance linear solver robustness.

 turbulent viscosity limited to viscosity ratio of 1.000000e+05 in 691 cells 

 Reversed flow on 4385 faces (100.0% area) of pressure-outlet 24.

 Reversed flow on 1603 faces (76.6% area) of pressure-outlet 25.
   440  1.5188e-01  2.3454e-03  2.2623e-03  2.3556e-03  8.4207e-02  5.5481e-02  0:03:10   60

 turbulent viscosity limited to viscosity ratio of 1.000000e+05 in 212 cells 

 Reversed flow on 4385 faces (100.0% area) of pressure-outlet 24.

 Reversed flow on 1592 faces (76.1% area) of pressure-outlet 25.

  iter  continuity  x-velocity  y-velocity  z-velocity           k     epsilon     time/iter
   441  1.4935e-01  2.0159e-03  1.9708e-03  1.9869e-03  2.5119e-02  2.3593e-02  0:02:53   59

 turbulent viscosity limited to viscosity ratio of 1.000000e+05 in 9 cells 

 Reversed flow on 4385 faces (100.0% area) of pressure-outlet 24.

 Reversed flow on 1590 faces (76.0% area) of pressure-outlet 25.
   442  1.4353e-01  1.7931e-03  1.7530e-03  1.7191e-03  8.5628e-03  1.3147e-02  0:02:39   58

 Reversed flow on 4385 faces (100.0% area) of pressure-outlet 24.

 Reversed flow on 1590 faces (76.0% area) of pressure-outlet 25.
   443  1.3889e-01  1.6339e-03  1.6010e-03  1.5449e-03  5.0377e-03  1.0127e-02  0:02:28   57

 Reversed flow on 4385 faces (100.0% area) of pressure-outlet 24.

 Reversed flow on 1583 faces (75.7% area) of pressure-outlet 25.
   444  1.3415e-01  1.5218e-03  1.4994e-03  1.4313e-03  3.9534e-03  8.8479e-03  0:02:07   56

 Reversed flow on 4385 faces (100.0% area) of pressure-outlet 24.

 Reversed flow on 1584 faces (75.7% area) of pressure-outlet 25.
   445  1.2976e-01  1.4634e-03  1.4518e-03  1.3749e-03  3.3969e-03  8.6040e-03  0:02:02   55

 Reversed flow on 4385 faces (100.0% area) of pressure-outlet 24.

 Reversed flow on 1583 faces (75.7% area) of pressure-outlet 25.
   446  1.2644e-01  1.4450e-03  1.4345e-03  1.3565e-03  3.1602e-03  8.4143e-03  0:01:47   54

 Reversed flow on 4385 faces (100.0% area) of pressure-outlet 24.

 Reversed flow on 1586 faces (75.8% area) of pressure-outlet 25.
   447  1.2461e-01  1.4594e-03  1.4403e-03  1.3587e-03  3.1330e-03  9.0284e-03  0:01:34   53

 Reversed flow on 4385 faces (100.0% area) of pressure-outlet 24.

 Reversed flow on 1583 faces (75.7% area) of pressure-outlet 25.
   448  1.2445e-01  1.4872e-03  1.4505e-03  1.3725e-03  3.1045e-03  9.2121e-03  0:01:35   52

 Reversed flow on 4385 faces (100.0% area) of pressure-outlet 24.

 Reversed flow on 1580 faces (75.5% area) of pressure-outlet 25.
   449  1.2550e-01  1.5211e-03  1.4600e-03  1.3913e-03  3.0235e-03  9.1208e-03  0:01:25   51

 Reversed flow on 4385 faces (100.0% area) of pressure-outlet 24.

 Reversed flow on 1583 faces (75.7% area) of pressure-outlet 25.
   450  1.2694e-01  1.5514e-03  1.4750e-03  1.4055e-03  2.9159e-03  8.8438e-03  0:01:26   50

 Reversed flow on 4385 faces (100.0% area) of pressure-outlet 24.

 Reversed flow on 1584 faces (75.7% area) of pressure-outlet 25.
   451  1.2833e-01  1.5729e-03  1.4967e-03  1.4206e-03  2.7757e-03  8.3945e-03  0:01:27   49

 Reversed flow on 4385 faces (100.0% area) of pressure-outlet 24.

 Reversed flow on 1580 faces (75.5% area) of pressure-outlet 25.

  iter  continuity  x-velocity  y-velocity  z-velocity           k     epsilon     time/iter
   452  1.2954e-01  1.5889e-03  1.5233e-03  1.4318e-03  2.6641e-03  8.1580e-03  0:01:18   48

 Reversed flow on 4385 faces (100.0% area) of pressure-outlet 24.

 Reversed flow on 1583 faces (75.7% area) of pressure-outlet 25.
   453  1.3052e-01  1.5962e-03  1.5516e-03  1.4411e-03  2.5437e-03  7.8129e-03  0:01:11   47

 Reversed flow on 4385 faces (100.0% area) of pressure-outlet 24.

 Reversed flow on 1583 faces (75.6% area) of pressure-outlet 25.
   454  1.3114e-01  1.5993e-03  1.5782e-03  1.4479e-03  2.4503e-03  7.5150e-03  0:01:04   46

 Reversed flow on 4385 faces (100.0% area) of pressure-outlet 24.

 Reversed flow on 1583 faces (75.6% area) of pressure-outlet 25.
   455  1.3157e-01  1.6049e-03  1.5979e-03  1.4565e-03  2.3790e-03  7.1823e-03  0:01:08   45

 Reversed flow on 4385 faces (100.0% area) of pressure-outlet 24.

 Reversed flow on 1582 faces (75.6% area) of pressure-outlet 25.
   456  1.3152e-01  1.6167e-03  1.6144e-03  1.4676e-03  2.3394e-03  7.1018e-03  0:01:11   44

 Reversed flow on 4385 faces (100.0% area) of pressure-outlet 24.

 Reversed flow on 1574 faces (75.2% area) of pressure-outlet 25.
   457  1.3156e-01  1.6336e-03  1.6212e-03  1.4797e-03  2.3052e-03  7.1051e-03  0:01:04   43

 Reversed flow on 4385 faces (100.0% area) of pressure-outlet 24.

 Reversed flow on 1574 faces (75.2% area) of pressure-outlet 25.
   458  1.3152e-01  1.6476e-03  1.6258e-03  1.4925e-03  2.2533e-03  6.8911e-03  0:01:07   42

 Reversed flow on 4385 faces (100.0% area) of pressure-outlet 24.

 Reversed flow on 1574 faces (75.2% area) of pressure-outlet 25.
   459  1.3177e-01  1.6627e-03  1.6228e-03  1.5003e-03  2.2476e-03  6.7829e-03  0:01:09   41

 Reversed flow on 4385 faces (100.0% area) of pressure-outlet 24.

 Reversed flow on 1572 faces (75.1% area) of pressure-outlet 25.
   460  1.3195e-01  1.6668e-03  1.6213e-03  1.5061e-03  2.2593e-03  6.8279e-03  0:01:02   40

 Reversed flow on 4385 faces (100.0% area) of pressure-outlet 24.

 Reversed flow on 1571 faces (75.0% area) of pressure-outlet 25.
   461  1.3272e-01  1.6698e-03  1.6190e-03  1.5111e-03  2.2790e-03  6.9375e-03  0:00:56   39

 Reversed flow on 4385 faces (100.0% area) of pressure-outlet 24.

 Reversed flow on 1573 faces (75.1% area) of pressure-outlet 25.
   462  1.3369e-01  1.6599e-03  1.6179e-03  1.5149e-03  2.2576e-03  6.5592e-03  0:00:59   38

 Reversed flow on 4385 faces (100.0% area) of pressure-outlet 24.

 Reversed flow on 1577 faces (75.3% area) of pressure-outlet 25.

  iter  continuity  x-velocity  y-velocity  z-velocity           k     epsilon     time/iter
   463  1.3472e-01  1.6443e-03  1.6110e-03  1.5162e-03  2.2664e-03  6.6033e-03  0:01:01   37

 Reversed flow on 4385 faces (100.0% area) of pressure-outlet 24.

 Reversed flow on 1575 faces (75.3% area) of pressure-outlet 25.
   464  1.3624e-01  1.6250e-03  1.6030e-03  1.5154e-03  2.2740e-03  6.7521e-03  0:01:02   36

 Reversed flow on 4385 faces (100.0% area) of pressure-outlet 24.

 Reversed flow on 1574 faces (75.2% area) of pressure-outlet 25.
   465  1.3776e-01  1.6008e-03  1.5883e-03  1.5049e-03  2.2780e-03  6.8085e-03  0:00:55   35

 Reversed flow on 4385 faces (100.0% area) of pressure-outlet 24.

 Reversed flow on 1570 faces (75.0% area) of pressure-outlet 25.
   466  1.3930e-01  1.5776e-03  1.5719e-03  1.4889e-03  2.2447e-03  6.4752e-03  0:00:56   34

 Reversed flow on 4385 faces (100.0% area) of pressure-outlet 24.

 Reversed flow on 1574 faces (75.2% area) of pressure-outlet 25.
   467  1.4037e-01  1.5552e-03  1.5490e-03  1.4669e-03  2.2443e-03  6.5895e-03  0:00:50   33

 Reversed flow on 4385 faces (100.0% area) of pressure-outlet 24.

 Reversed flow on 1574 faces (75.2% area) of pressure-outlet 25.
   468  1.4112e-01  1.5363e-03  1.5300e-03  1.4470e-03  2.2711e-03  6.8507e-03  0:00:45   32

 Reversed flow on 4385 faces (100.0% area) of pressure-outlet 24.

 Reversed flow on 1574 faces (75.2% area) of pressure-outlet 25.
   469  1.4170e-01  1.5237e-03  1.5107e-03  1.4315e-03  2.2926e-03  6.8679e-03  0:00:41   31

 Reversed flow on 4385 faces (100.0% area) of pressure-outlet 24.

 Reversed flow on 1571 faces (75.1% area) of pressure-outlet 25.
   470  1.4221e-01  1.5184e-03  1.4923e-03  1.4215e-03  2.2873e-03  6.8943e-03  0:00:38   30

 Reversed flow on 4385 faces (100.0% area) of pressure-outlet 24.

 Reversed flow on 1572 faces (75.1% area) of pressure-outlet 25.
   471  1.4340e-01  1.5170e-03  1.4863e-03  1.4204e-03  2.3179e-03  7.0671e-03  0:00:41   29

 Reversed flow on 4385 faces (100.0% area) of pressure-outlet 24.

 Reversed flow on 1575 faces (75.3% area) of pressure-outlet 25.
   472  1.4563e-01  1.5272e-03  1.4882e-03  1.4292e-03  2.3818e-03  7.3591e-03  0:00:37   28

 Reversed flow on 4385 faces (100.0% area) of pressure-outlet 24.

 Reversed flow on 1575 faces (75.3% area) of pressure-outlet 25.
   473  1.4855e-01  1.5452e-03  1.4994e-03  1.4494e-03  2.4066e-03  7.3985e-03  0:00:40   27

 Reversed flow on 4385 faces (100.0% area) of pressure-outlet 24.

 Reversed flow on 1575 faces (75.3% area) of pressure-outlet 25.

  iter  continuity  x-velocity  y-velocity  z-velocity           k     epsilon     time/iter
   474  1.5195e-01  1.5741e-03  1.5164e-03  1.4726e-03  2.4183e-03  7.5022e-03  0:00:36   26

 Reversed flow on 4385 faces (100.0% area) of pressure-outlet 24.

 Reversed flow on 1573 faces (75.2% area) of pressure-outlet 25.
   475  1.5528e-01  1.5972e-03  1.5399e-03  1.4988e-03  2.4117e-03  7.5570e-03  0:00:37   25

 Reversed flow on 4385 faces (100.0% area) of pressure-outlet 24.

 Reversed flow on 1569 faces (75.0% area) of pressure-outlet 25.
   476  1.5767e-01  1.6162e-03  1.5562e-03  1.5175e-03  2.3855e-03  7.3870e-03  0:00:38   24

 Reversed flow on 4385 faces (100.0% area) of pressure-outlet 24.

 Reversed flow on 1568 faces (75.0% area) of pressure-outlet 25.
   477  1.5828e-01  1.6190e-03  1.5652e-03  1.5246e-03  2.3251e-03  7.1780e-03  0:00:34   23

 Reversed flow on 4385 faces (100.0% area) of pressure-outlet 24.

 Reversed flow on 1561 faces (74.7% area) of pressure-outlet 25.
   478  1.5765e-01  1.6191e-03  1.5646e-03  1.5253e-03  2.3172e-03  7.0765e-03  0:00:35   22

 turbulent viscosity limited to viscosity ratio of 1.000000e+05 in 2 cells 

 Reversed flow on 4385 faces (100.0% area) of pressure-outlet 24.

 Reversed flow on 1559 faces (74.6% area) of pressure-outlet 25.
   479  1.5660e-01  1.6125e-03  1.5741e-03  1.5227e-03  2.2975e-03  6.8590e-03  0:00:35   21

 turbulent viscosity limited to viscosity ratio of 1.000000e+05 in 2 cells 

 Reversed flow on 4385 faces (100.0% area) of pressure-outlet 24.

 Reversed flow on 1563 faces (74.8% area) of pressure-outlet 25.
   480  1.5534e-01  1.6047e-03  1.5798e-03  1.5179e-03  2.3216e-03  6.7188e-03  0:00:31   20

 turbulent viscosity limited to viscosity ratio of 1.000000e+05 in 2 cells 

 Reversed flow on 4385 faces (100.0% area) of pressure-outlet 24.

 Reversed flow on 1556 faces (74.5% area) of pressure-outlet 25.
   481  1.5352e-01  1.5923e-03  1.5889e-03  1.5116e-03  2.3747e-03  7.0070e-03  0:00:31   19

 turbulent viscosity limited to viscosity ratio of 1.000000e+05 in 2 cells 

 Reversed flow on 4385 faces (100.0% area) of pressure-outlet 24.

 Reversed flow on 1558 faces (74.5% area) of pressure-outlet 25.
   482  1.5177e-01  1.5819e-03  1.5902e-03  1.5002e-03  2.4713e-03  7.2815e-03  0:00:27   18

 Reversed flow on 4385 faces (100.0% area) of pressure-outlet 24.

 Reversed flow on 1563 faces (74.8% area) of pressure-outlet 25.
   483  1.5031e-01  1.5682e-03  1.5890e-03  1.4874e-03  2.5143e-03  7.7480e-03  0:00:27   17

 Reversed flow on 4385 faces (100.0% area) of pressure-outlet 24.

 Reversed flow on 1566 faces (75.0% area) of pressure-outlet 25.
   484  1.4814e-01  1.5575e-03  1.5778e-03  1.4717e-03  2.5395e-03  7.8959e-03  0:00:27   16

 Reversed flow on 4385 faces (100.0% area) of pressure-outlet 24.

 Reversed flow on 1572 faces (75.2% area) of pressure-outlet 25.

  iter  continuity  x-velocity  y-velocity  z-velocity           k     epsilon     time/iter
   485  1.4603e-01  1.5480e-03  1.5712e-03  1.4581e-03  2.5595e-03  8.0922e-03  0:00:26   15

 turbulent viscosity limited to viscosity ratio of 1.000000e+05 in 4 cells 

 Reversed flow on 4385 faces (100.0% area) of pressure-outlet 24.

 Reversed flow on 1566 faces (74.9% area) of pressure-outlet 25.
   486  1.4419e-01  1.5429e-03  1.5682e-03  1.4461e-03  2.5684e-03  8.2175e-03  0:00:22   14

 turbulent viscosity limited to viscosity ratio of 1.000000e+05 in 6 cells 

 Reversed flow on 4385 faces (100.0% area) of pressure-outlet 24.

 Reversed flow on 1569 faces (75.1% area) of pressure-outlet 25.
   487  1.4269e-01  1.5473e-03  1.5606e-03  1.4383e-03  2.5652e-03  8.2819e-03  0:00:19   13

 turbulent viscosity limited to viscosity ratio of 1.000000e+05 in 2 cells 

 Reversed flow on 4385 faces (100.0% area) of pressure-outlet 24.

 Reversed flow on 1571 faces (75.1% area) of pressure-outlet 25.
   488  1.4174e-01  1.5519e-03  1.5470e-03  1.4321e-03  2.5739e-03  8.5241e-03  0:00:19   12

 Reversed flow on 4385 faces (100.0% area) of pressure-outlet 24.

 Reversed flow on 1575 faces (75.3% area) of pressure-outlet 25.
   489  1.4124e-01  1.5609e-03  1.5302e-03  1.4312e-03  2.5498e-03  8.3946e-03  0:00:18   11

 turbulent viscosity limited to viscosity ratio of 1.000000e+05 in 1 cells 

 Reversed flow on 4385 faces (100.0% area) of pressure-outlet 24.

 Reversed flow on 1575 faces (75.3% area) of pressure-outlet 25.
   490  1.4091e-01  1.5656e-03  1.5115e-03  1.4339e-03  2.5218e-03  8.3704e-03  0:00:15   10

 Reversed flow on 4385 faces (100.0% area) of pressure-outlet 24.

 Reversed flow on 1580 faces (75.5% area) of pressure-outlet 25.
   491  1.4038e-01  1.5702e-03  1.4941e-03  1.4341e-03  2.5444e-03  8.5867e-03  0:00:15    9

 Reversed flow on 4385 faces (100.0% area) of pressure-outlet 24.

 Reversed flow on 1579 faces (75.4% area) of pressure-outlet 25.
   492  1.3980e-01  1.5709e-03  1.4850e-03  1.4328e-03  2.5477e-03  8.8420e-03  0:00:14    8

 Reversed flow on 4385 faces (100.0% area) of pressure-outlet 24.

 Reversed flow on 1581 faces (75.5% area) of pressure-outlet 25.
   493  1.3877e-01  1.5655e-03  1.4777e-03  1.4267e-03  2.5329e-03  8.4076e-03  0:00:11    7

 Reversed flow on 4385 faces (100.0% area) of pressure-outlet 24.

 Reversed flow on 1580 faces (75.4% area) of pressure-outlet 25.
   494  1.3773e-01  1.5593e-03  1.4741e-03  1.4191e-03  2.4813e-03  8.3114e-03  0:00:09    6

 Reversed flow on 4385 faces (100.0% area) of pressure-outlet 24.

 Reversed flow on 1576 faces (75.2% area) of pressure-outlet 25.
   495  1.3657e-01  1.5577e-03  1.4767e-03  1.4091e-03  2.4654e-03  8.3779e-03  0:00:08    5

 Reversed flow on 4385 faces (100.0% area) of pressure-outlet 24.

 Reversed flow on 1574 faces (75.1% area) of pressure-outlet 25.

  iter  continuity  x-velocity  y-velocity  z-velocity           k     epsilon     time/iter
   496  1.3537e-01  1.5634e-03  1.4776e-03  1.3952e-03  2.4095e-03  8.2484e-03  0:00:07    4

 Reversed flow on 4385 faces (100.0% area) of pressure-outlet 24.

 Reversed flow on 1573 faces (75.1% area) of pressure-outlet 25.
   497  1.3395e-01  1.5604e-03  1.4780e-03  1.3801e-03  2.3549e-03  7.9590e-03  0:00:05    3

 Reversed flow on 4385 faces (100.0% area) of pressure-outlet 24.

 Reversed flow on 1572 faces (75.0% area) of pressure-outlet 25.
   498  1.3223e-01  1.5608e-03  1.4770e-03  1.3666e-03  2.2996e-03  8.0480e-03  0:00:04    2

 Reversed flow on 4385 faces (100.0% area) of pressure-outlet 24.

 Reversed flow on 1572 faces (75.0% area) of pressure-outlet 25.
   499  1.3034e-01  1.5556e-03  1.4790e-03  1.3520e-03  2.2432e-03  7.9904e-03  0:00:02    1

 Reversed flow on 4385 faces (100.0% area) of pressure-outlet 24.

 Reversed flow on 1572 faces (75.0% area) of pressure-outlet 25.
   500  1.2864e-01  1.5545e-03  1.4740e-03  1.3343e-03  2.1818e-03  7.6615e-03  0:00:00    0

> ;/solve/set/time-step 0.01
;solve/set/data-sampling y 1 y y
;/solve/dual-time-iterate 5000 10

adjoint/                file/                   report/
define/                 mesh/                   solve/
display/                parallel/               surface/
exit                    plot/                   views/

> ; set save
;no .h5 format

adjoint/                file/                   report/
define/                 mesh/                   solve/
display/                parallel/               surface/
exit                    plot/                   views/

> /file/cff-files? n

> ;/file/autosave/root-name "Me_317"
/file/write-case-data "E:\LGF\Sim\task\0826_1\P_85\FluentData_M100_-5000_85.cas"
Writing "E:\LGF\Sim\task\0826_1\P_85\FluentData_M100_-5000_85.cas"...

    6990 mixed cells, zone 15, binary.
  565192 mixed cells, zone 16, binary.
  128494 mixed cells, zone 17, binary.
   99631 mixed cells, zone 18, binary.
  112217 mixed cells, zone 19, binary.
    6990 cell partition ids, zone 15, 100 partitions, binary.
  565192 cell partition ids, zone 16, 100 partitions, binary.
  128494 cell partition ids, zone 17, 100 partitions, binary.
   99631 cell partition ids, zone 18, 100 partitions, binary.
  112217 cell partition ids, zone 19, 100 partitions, binary.
    3768 mixed wall faces, zone  1, binary.
   34998 triangular wall faces, zone  2, binary.
    6023 triangular wall faces, zone  3, binary.
   11483 triangular wall faces, zone  4, binary.
    5640 triangular wall faces, zone  5, binary.
    2602 triangular interior faces, zone  6, binary.
     310 quadrilateral interior faces, zone  7, binary.
    2662 mixed interior faces, zone  8, binary.
    2776 mixed interior faces, zone  9, binary.
   18821 mixed interior faces, zone 10, binary.
 1189685 mixed interior faces, zone 11, binary.
  263371 mixed interior faces, zone 12, binary.
  203749 mixed interior faces, zone 13, binary.
  217848 triangular interior faces, zone 14, binary.
     637 triangular pressure-outlet faces, zone 22, binary.
     100 quadrilateral velocity-inlet faces, zone 23, binary.
    4385 mixed pressure-outlet faces, zone 24, binary.
    2646 mixed pressure-outlet faces, zone 25, binary.
    1906 triangular velocity-inlet faces, zone 26, binary.
    4293 triangular wall faces, zone 27, binary.
    4279 triangular wall faces, zone 28, binary.
  252813 nodes, binary.
  252813 node flags, binary.
Done.


Writing "E:\LGF\Sim\task\0826_1\P_85\FluentData_M100_-5000_85.dat"...

Done.



> ;/display/save-picture "E:\LGF\Sim\task\0826_1\P_85\FluentData_M100_-5000_85jpg"
/exit/c