
              Welcome to ANSYS Fluent 2020 R1

              Copyright 1987-2020 ANSYS, Inc. All Rights Reserved.
              Unauthorized use, distribution or duplication is prohibited.
              This product is subject to U.S. laws governing export and re-export.
              For full Legal Notice, see documentation.

Build Time: Dec  2 2019 14:15:26 EST  Build Id: 10114  
 
Host spawning Node 0 on machine "DESKTOP-8RUTNJQ" (win64).
WARNING: No cached password or password provided.
         use '-pass' or '-cache' to provide password
Host 0 -- ip 192.168.161.95 -- ranks 0 - 99

 host | 0
======|======
    0 : SHM

 Prot -  All Intra-node communication is: SHM


-------------------------------------------------------------------------------
ID    Hostname         Core     O.S.         PID     Vendor        
-------------------------------------------------------------------------------
n99   DESKTOP-8RUTNJQ  100/128  Windows-x64  147068  AMD EPYC 7702 
n98   DESKTOP-8RUTNJQ  99/128   Windows-x64  148200  AMD EPYC 7702 
n97   DESKTOP-8RUTNJQ  98/128   Windows-x64  147316  AMD EPYC 7702 
n96   DESKTOP-8RUTNJQ  97/128   Windows-x64  148084  AMD EPYC 7702 
n95   DESKTOP-8RUTNJQ  96/128   Windows-x64  148440  AMD EPYC 7702 
n94   DESKTOP-8RUTNJQ  95/128   Windows-x64  146388  AMD EPYC 7702 
n93   DESKTOP-8RUTNJQ  94/128   Windows-x64  142572  AMD EPYC 7702 
n92   DESKTOP-8RUTNJQ  93/128   Windows-x64  144416  AMD EPYC 7702 
n91   DESKTOP-8RUTNJQ  92/128   Windows-x64  148988  AMD EPYC 7702 
n90   DESKTOP-8RUTNJQ  91/128   Windows-x64  144444  AMD EPYC 7702 
n89   DESKTOP-8RUTNJQ  90/128   Windows-x64  147264  AMD EPYC 7702 
n88   DESKTOP-8RUTNJQ  89/128   Windows-x64  145896  AMD EPYC 7702 
n87   DESKTOP-8RUTNJQ  88/128   Windows-x64  140272  AMD EPYC 7702 
n86   DESKTOP-8RUTNJQ  87/128   Windows-x64  149048  AMD EPYC 7702 
n85   DESKTOP-8RUTNJQ  86/128   Windows-x64  143936  AMD EPYC 7702 
n84   DESKTOP-8RUTNJQ  85/128   Windows-x64  147244  AMD EPYC 7702 
n83   DESKTOP-8RUTNJQ  84/128   Windows-x64  184020  AMD EPYC 7702 
n82   DESKTOP-8RUTNJQ  83/128   Windows-x64  147808  AMD EPYC 7702 
n81   DESKTOP-8RUTNJQ  82/128   Windows-x64  146872  AMD EPYC 7702 
n80   DESKTOP-8RUTNJQ  81/128   Windows-x64  141616  AMD EPYC 7702 
-------------------------------------------------------------------------------
ID    Hostname         Core     O.S.         PID     Vendor        
-------------------------------------------------------------------------------
n79   DESKTOP-8RUTNJQ  80/128   Windows-x64  146392  AMD EPYC 7702 
n78   DESKTOP-8RUTNJQ  79/128   Windows-x64  147980  AMD EPYC 7702 
n77   DESKTOP-8RUTNJQ  78/128   Windows-x64  142472  AMD EPYC 7702 
n76   DESKTOP-8RUTNJQ  77/128   Windows-x64  141640  AMD EPYC 7702 
n75   DESKTOP-8RUTNJQ  76/128   Windows-x64  137788  AMD EPYC 7702 
n74   DESKTOP-8RUTNJQ  75/128   Windows-x64  141992  AMD EPYC 7702 
n73   DESKTOP-8RUTNJQ  74/128   Windows-x64  146624  AMD EPYC 7702 
n72   DESKTOP-8RUTNJQ  73/128   Windows-x64  146740  AMD EPYC 7702 
n71   DESKTOP-8RUTNJQ  72/128   Windows-x64  142752  AMD EPYC 7702 
n70   DESKTOP-8RUTNJQ  71/128   Windows-x64  141836  AMD EPYC 7702 
n69   DESKTOP-8RUTNJQ  70/128   Windows-x64  146908  AMD EPYC 7702 
n68   DESKTOP-8RUTNJQ  69/128   Windows-x64  145980  AMD EPYC 7702 
n67   DESKTOP-8RUTNJQ  68/128   Windows-x64  139636  AMD EPYC 7702 
n66   DESKTOP-8RUTNJQ  67/128   Windows-x64  145376  AMD EPYC 7702 
n65   DESKTOP-8RUTNJQ  66/128   Windows-x64  122132  AMD EPYC 7702 
n64   DESKTOP-8RUTNJQ  65/128   Windows-x64  141660  AMD EPYC 7702 
n63   DESKTOP-8RUTNJQ  64/128   Windows-x64  145840  AMD EPYC 7702 
n62   DESKTOP-8RUTNJQ  63/128   Windows-x64  125448  AMD EPYC 7702 
n61   DESKTOP-8RUTNJQ  62/128   Windows-x64  148696  AMD EPYC 7702 
n60   DESKTOP-8RUTNJQ  61/128   Windows-x64  137340  AMD EPYC 7702 
-------------------------------------------------------------------------------
ID    Hostname         Core     O.S.         PID     Vendor        
-------------------------------------------------------------------------------
n59   DESKTOP-8RUTNJQ  60/128   Windows-x64  145728  AMD EPYC 7702 
n58   DESKTOP-8RUTNJQ  59/128   Windows-x64  145508  AMD EPYC 7702 
n57   DESKTOP-8RUTNJQ  58/128   Windows-x64  144488  AMD EPYC 7702 
n56   DESKTOP-8RUTNJQ  57/128   Windows-x64  144320  AMD EPYC 7702 
n55   DESKTOP-8RUTNJQ  56/128   Windows-x64  135712  AMD EPYC 7702 
n54   DESKTOP-8RUTNJQ  55/128   Windows-x64  137620  AMD EPYC 7702 
n53   DESKTOP-8RUTNJQ  54/128   Windows-x64  143580  AMD EPYC 7702 
n52   DESKTOP-8RUTNJQ  53/128   Windows-x64  147920  AMD EPYC 7702 
n51   DESKTOP-8RUTNJQ  52/128   Windows-x64  135552  AMD EPYC 7702 
n50   DESKTOP-8RUTNJQ  51/128   Windows-x64  115580  AMD EPYC 7702 
n49   DESKTOP-8RUTNJQ  50/128   Windows-x64  146932  AMD EPYC 7702 
n48   DESKTOP-8RUTNJQ  49/128   Windows-x64  147224  AMD EPYC 7702 
n47   DESKTOP-8RUTNJQ  48/128   Windows-x64  141560  AMD EPYC 7702 
n46   DESKTOP-8RUTNJQ  47/128   Windows-x64  144764  AMD EPYC 7702 
n45   DESKTOP-8RUTNJQ  46/128   Windows-x64  120412  AMD EPYC 7702 
n44   DESKTOP-8RUTNJQ  45/128   Windows-x64  130960  AMD EPYC 7702 
n43   DESKTOP-8RUTNJQ  44/128   Windows-x64  185444  AMD EPYC 7702 
n42   DESKTOP-8RUTNJQ  43/128   Windows-x64  143280  AMD EPYC 7702 
n41   DESKTOP-8RUTNJQ  42/128   Windows-x64  144456  AMD EPYC 7702 
n40   DESKTOP-8RUTNJQ  41/128   Windows-x64  144624  AMD EPYC 7702 
-------------------------------------------------------------------------------
ID    Hostname         Core     O.S.         PID     Vendor        
-------------------------------------------------------------------------------
n39   DESKTOP-8RUTNJQ  40/128   Windows-x64  144352  AMD EPYC 7702 
n38   DESKTOP-8RUTNJQ  39/128   Windows-x64  145588  AMD EPYC 7702 
n37   DESKTOP-8RUTNJQ  38/128   Windows-x64  141912  AMD EPYC 7702 
n36   DESKTOP-8RUTNJQ  37/128   Windows-x64  143752  AMD EPYC 7702 
n35   DESKTOP-8RUTNJQ  36/128   Windows-x64  144612  AMD EPYC 7702 
n34   DESKTOP-8RUTNJQ  35/128   Windows-x64  144412  AMD EPYC 7702 
n33   DESKTOP-8RUTNJQ  34/128   Windows-x64  142380  AMD EPYC 7702 
n32   DESKTOP-8RUTNJQ  33/128   Windows-x64  140720  AMD EPYC 7702 
n31   DESKTOP-8RUTNJQ  32/128   Windows-x64  138372  AMD EPYC 7702 
n30   DESKTOP-8RUTNJQ  31/128   Windows-x64  140848  AMD EPYC 7702 
n29   DESKTOP-8RUTNJQ  30/128   Windows-x64  141772  AMD EPYC 7702 
n28   DESKTOP-8RUTNJQ  29/128   Windows-x64  142444  AMD EPYC 7702 
n27   DESKTOP-8RUTNJQ  28/128   Windows-x64  145252  AMD EPYC 7702 
n26   DESKTOP-8RUTNJQ  27/128   Windows-x64  140600  AMD EPYC 7702 
n25   DESKTOP-8RUTNJQ  26/128   Windows-x64  145324  AMD EPYC 7702 
n24   DESKTOP-8RUTNJQ  25/128   Windows-x64  130612  AMD EPYC 7702 
n23   DESKTOP-8RUTNJQ  24/128   Windows-x64  142924  AMD EPYC 7702 
n22   DESKTOP-8RUTNJQ  23/128   Windows-x64  184984  AMD EPYC 7702 
n21   DESKTOP-8RUTNJQ  22/128   Windows-x64  139052  AMD EPYC 7702 
n20   DESKTOP-8RUTNJQ  21/128   Windows-x64  144472  AMD EPYC 7702 
-------------------------------------------------------------------------------
ID    Hostname         Core     O.S.         PID     Vendor        
-------------------------------------------------------------------------------
n19   DESKTOP-8RUTNJQ  20/128   Windows-x64  139152  AMD EPYC 7702 
n18   DESKTOP-8RUTNJQ  19/128   Windows-x64  140928  AMD EPYC 7702 
n17   DESKTOP-8RUTNJQ  18/128   Windows-x64  140440  AMD EPYC 7702 
n16   DESKTOP-8RUTNJQ  17/128   Windows-x64  144644  AMD EPYC 7702 
n15   DESKTOP-8RUTNJQ  16/128   Windows-x64  130132  AMD EPYC 7702 
n14   DESKTOP-8RUTNJQ  15/128   Windows-x64  141100  AMD EPYC 7702 
n13   DESKTOP-8RUTNJQ  14/128   Windows-x64  143208  AMD EPYC 7702 
n12   DESKTOP-8RUTNJQ  13/128   Windows-x64  143156  AMD EPYC 7702 
n11   DESKTOP-8RUTNJQ  12/128   Windows-x64  184028  AMD EPYC 7702 
n10   DESKTOP-8RUTNJQ  11/128   Windows-x64  106612  AMD EPYC 7702 
n9    DESKTOP-8RUTNJQ  10/128   Windows-x64  176640  AMD EPYC 7702 
n8    DESKTOP-8RUTNJQ  9/128    Windows-x64  139888  AMD EPYC 7702 
n7    DESKTOP-8RUTNJQ  8/128    Windows-x64  142364  AMD EPYC 7702 
n6    DESKTOP-8RUTNJQ  7/128    Windows-x64  185804  AMD EPYC 7702 
n5    DESKTOP-8RUTNJQ  6/128    Windows-x64  183760  AMD EPYC 7702 
n4    DESKTOP-8RUTNJQ  5/128    Windows-x64  139240  AMD EPYC 7702 
n3    DESKTOP-8RUTNJQ  4/128    Windows-x64  137120  AMD EPYC 7702 
n2    DESKTOP-8RUTNJQ  3/128    Windows-x64  137540  AMD EPYC 7702 
n1    DESKTOP-8RUTNJQ  2/128    Windows-x64  143776  AMD EPYC 7702 
n0*   DESKTOP-8RUTNJQ  1/128    Windows-x64  143340  AMD EPYC 7702 
host  DESKTOP-8RUTNJQ           Windows-x64  183156  AMD EPYC 7702 

MPI Option Selected: ibmmpi
Selected system interconnect: default
-------------------------------------------------------------------------------



Cleanup script file is E:\LGF\Sim\Script\\cleanup-fluent-DESKTOP-8RUTNJQ-123172.bat

Reading journal file E:\LGF\Sim\task\0826_1\P_85\J_M100_85_-3800.jou...

> ;Read case
/file/read-case E:\LGF\Sim\basic_Mesh\Model_100.msh

DESKTOP-8RUTNJQ is already loaded (31.3532%).                       Process affinity not being set.

83: Affinity not set!

25: Affinity not set!

47: Affinity not set!

75: Affinity not set!

55: Affinity not set!

77: Affinity not set!

87: Affinity not set!

5: Affinity not set!

7: Affinity not set!

1: Affinity not set!

44: Affinity not set!

34: Affinity not set!

39: Affinity not set!

76: Affinity not set!

28: Affinity not set!

68: Affinity not set!

41: Affinity not set!

58: Affinity not set!

69: Affinity not set!

20: Affinity not set!

15: Affinity not set!

65: Affinity not set!

17: Affinity not set!

33: Affinity not set!

45: Affinity not set!

79: Affinity not set!

85: Affinity not set!

3: Affinity not set!

21: Affinity not set!

31: Affinity not set!

51: Affinity not set!

67: Affinity not set!

71: Affinity not set!

80: Affinity not set!

97: Affinity not set!

6: Affinity not set!

10: Affinity not set!

12: Affinity not set!

19: Affinity not set!

32: Affinity not set!

38: Affinity not set!

62: Affinity not set!

91: Affinity not set!

43: Affinity not set!

61: Affinity not set!

70: Affinity not set!

92: Affinity not set!

99: Affinity not set!

66: Affinity not set!

11: Affinity not set!

13: Affinity not set!

23: Affinity not set!

29: Affinity not set!

40: Affinity not set!

53: Affinity not set!

54: Affinity not set!

57: Affinity not set!

59: Affinity not set!

63: Affinity not set!

73: Affinity not set!

2: Affinity not set!

4: Affinity not set!

8: Affinity not set!

9: Affinity not set!

14: Affinity not set!

16: Affinity not set!

18: Affinity not set!

22: Affinity not set!

24: Affinity not set!

26: Affinity not set!

27: Affinity not set!

30: Affinity not set!

35: Affinity not set!

36: Affinity not set!

37: Affinity not set!

42: Affinity not set!

46: Affinity not set!

48: Affinity not set!

49: Affinity not set!

50: Affinity not set!

52: Affinity not set!

56: Affinity not set!

60: Affinity not set!

64: Affinity not set!

72: Affinity not set!

74: Affinity not set!

78: Affinity not set!

81: Affinity not set!

82: Affinity not set!

84: Affinity not set!

86: Affinity not set!

88: Affinity not set!

89: Affinity not set!

90: Affinity not set!

93: Affinity not set!

94: Affinity not set!

95: Affinity not set!

96: Affinity not set!

98: Affinity not set!

Reading "E:\LGF\Sim\basic_Mesh\Model_100.msh"...

Buffering for file scan...

  209972 nodes, binary.
   42841 nodes, binary.
    3768 mixed wall faces, zone  1, binary.
   34998 triangular wall faces, zone  2, binary.
    6023 triangular wall faces, zone  3, binary.
   11483 triangular wall faces, zone  4, binary.
    5640 triangular wall faces, zone  5, binary.
    2602 triangular interior faces, zone  6, binary.
     310 quadrilateral interior faces, zone  7, binary.
    2662 mixed interior faces, zone  8, binary.
    2776 mixed interior faces, zone  9, binary.
   18821 mixed interior faces, zone 10, binary.
 1189685 mixed interior faces, zone 11, binary.
  263371 mixed interior faces, zone 12, binary.
  203749 mixed interior faces, zone 13, binary.
  217848 triangular interior faces, zone 14, binary.
     637 triangular wall faces, zone 22, binary.
     100 quadrilateral wall faces, zone 23, binary.
    4385 mixed wall faces, zone 24, binary.
    2646 mixed wall faces, zone 25, binary.
    1906 triangular wall faces, zone 26, binary.
    4293 triangular wall faces, zone 27, binary.
    4279 triangular wall faces, zone 28, binary.
    6990 mixed cells, zone 15, binary.
  565192 mixed cells, zone 16, binary.
  128494 mixed cells, zone 17, binary.
   99631 mixed cells, zone 18, binary.
  112217 mixed cells, zone 19, binary.

Building...
     mesh
	auto partitioning mesh by Metis (fast),
	distributing mesh
		parts..................................................,
		faces..................................................,
		nodes..................................................,
		cells..................................................,
        bandwidth reduction using Reverse Cuthill-McKee: 9508/523 = 18.1797
     materials,
     interface,
     domains,
     zones,
	wall_tx_xi
	wall_xi_tx
	i2
	p2
	p1
	i1
	o1
	towparts-xi_zhui
	towparts-tc_tc
	towparts-tx_tx
	towparts-block_block
	towparts-xi_huan
	interior-towparts-xi_zhui
	interior-towparts-tc_tc
	interior-towparts-tx_tx
	interior-towparts-block_block
	interior-towparts-xi_huan
	interior-towparts-block_block-towparts-tc_tc
	interior-towparts-block_block-towparts-tx_tx
	interior-towparts-xi_huan-towparts-xi_zhui
	interior-towparts-block_block-towparts-xi_zhui
	wall-towparts-xi_zhui
	wall-towparts-tc_tc
	wall-towparts-tx_tx
	wall-towparts-block_block
	wall-towparts-xi_huan
     parallel,
Done.

> 
adjoint/                file/                   report/
define/                 mesh/                   solve/
display/                parallel/               surface/
exit                    plot/                   views/

> ; set save
;;/file/auto-save/data-frequency 2000
;;/file/auto-save/case-frequency each-time
;;/file/autosave/root-name "30du.msh.gz"

adjoint/                file/                   report/
define/                 mesh/                   solve/
display/                parallel/               surface/
exit                    plot/                   views/

> ;delete mesh interface
;/define/mesh-interface/delete contact_region

adjoint/                file/                   report/
define/                 mesh/                   solve/
display/                parallel/               surface/
exit                    plot/                   views/

> ;/define/operating-conditions/gravity/ y 0 -9.8 6

adjoint/                file/                   report/
define/                 mesh/                   solve/
display/                parallel/               surface/
exit                    plot/                   views/

> ;scale
;;/mesh/scale 0.125 0.125 0.125

adjoint/                file/                   report/
define/                 mesh/                   solve/
display/                parallel/               surface/
exit                    plot/                   views/

> ;general

adjoint/                file/                   report/
define/                 mesh/                   solve/
display/                parallel/               surface/
exit                    plot/                   views/

> /define/operating-conditions? invalid command [operating-conditions?]
y 0.0 -9.8 0.0

> 
adjoint/                file/                   report/
define/                 mesh/                   solve/
display/                parallel/               surface/
exit                    plot/                   views/

> /define/models steady? Steady solution model is already enabled.
y
invalid command [y]

> ;/define/models unsteady-1st-order? y

adjoint/                file/                   report/
define/                 mesh/                   solve/
display/                parallel/               surface/
exit                    plot/                   views/

> 
adjoint/                file/                   report/
define/                 mesh/                   solve/
display/                parallel/               surface/
exit                    plot/                   views/

> ;define viscous model

adjoint/                file/                   report/
define/                 mesh/                   solve/
display/                parallel/               surface/
exit                    plot/                   views/

> /define/models/viscous/ke-rng? y   ;;swirl?
/define/models/viscous/rng-swirl-model? yes

> 
adjoint/                file/                   report/
define/                 mesh/                   solve/
display/                parallel/               surface/
exit                    plot/                   views/

> 
adjoint/                file/                   report/
define/                 mesh/                   solve/
display/                parallel/               surface/
exit                    plot/                   views/

> ;/define/models/viscous/ke-rng-swirl-model? y
;/define/models/viscous/ke-rng/rng-swirl-model? y

adjoint/                file/                   report/
define/                 mesh/                   solve/
display/                parallel/               surface/
exit                    plot/                   views/

> 
adjoint/                file/                   report/
define/                 mesh/                   solve/
display/                parallel/               surface/
exit                    plot/                   views/

> ;/define/models/viscous/ke-realizable? y            

adjoint/                file/                   report/
define/                 mesh/                   solve/
display/                parallel/               surface/
exit                    plot/                   views/

> 
adjoint/                file/                   report/
define/                 mesh/                   solve/
display/                parallel/               surface/
exit                    plot/                   views/

> ; modify boundary-condition types

adjoint/                file/                   report/
define/                 mesh/                   solve/
display/                parallel/               surface/
exit                    plot/                   views/

> ;/define/boundary-conditions/zone-type contact_region-src wall
;/define/boundary-conditions/zone-type contact_region-trg wall
/define/boundary-conditions/zone-type i1 velocity-inlet

> /define/boundary-conditions/zone-type i2 velocity-inlet

> 
adjoint/                file/                   report/
define/                 mesh/                   solve/
display/                parallel/               surface/
exit                    plot/                   views/

> /define/boundary-conditions/zone-type o1 pressure-outlet

> /define/boundary-conditions/zone-type p1 pressure-outlet

> /define/boundary-conditions/zone-type p2 pressure-outlet

> 
adjoint/                file/                   report/
define/                 mesh/                   solve/
display/                parallel/               surface/
exit                    plot/                   views/

> ;set inlet boundary-conditions
/define/boundary-conditions/velocity-inlet (i2 i1)
i2  n n y y n 10 n 0 n n y 5 10

> /define/boundary-conditions/velocity-inlet (i2 i1)
i1  n n y y n 85 n 0 n n y 5 10

> /define/boundary-conditions/pressure-outlet (p2 p1 o1)
o1  y n -3800 n y n n y 5 10 y n n n

> /define/boundary-conditions/pressure-outlet (p2 p1 o1)
p1  y n 0 n y n n y 5 10 y n n n 

> /define/boundary-conditions/pressure-outlet (p2 p1 o1)
p2  y n 0 n y n n y 5 10 y n n n 

> 
adjoint/                file/                   report/
define/                 mesh/                   solve/
display/                parallel/               surface/
exit                    plot/                   views/

> ;;;;n y y n 0 y n 51.96 n 30 n 0 y n 1 n 1
;/define/boundary-conditions/copy-bc inlet front ()
;/define/boundary-conditions/wall lj y motion-bc-moving n n n n 11.11 1 0 0 n n 0 n 0.5

adjoint/                file/                   report/
define/                 mesh/                   solve/
display/                parallel/               surface/
exit                    plot/                   views/

> ; set solution controls
;/solve/set/p-v-coupling 21
;20: SIMPLE
;21: SIMPLEC
;22: PISO
;24: coupled
;/solve/set/under-relaxation pressure 0.5
;/solve/set/under-relaxation density 0.8
;/solve/set/under-relaxation body-force  0.8
;/solve/set/under-relaxation mom 0.5
;/solve/set/under-relaxation turb-viscosity 0.6
;/solve/set/under-relaxation k 0.6
;/solve/set/under-relaxation epsilon 0.6
;/solve/set/under-relaxation body-force 0.8 turb-viscosity 0.8 density 0.8
;/solve/set/discretization-scheme pressure 10 mom 1 k 1 epsilon 1

adjoint/                file/                   report/
define/                 mesh/                   solve/
display/                parallel/               surface/
exit                    plot/                   views/

> ;set pressure
;10:standard
;11:linear
;12:second order
;13:body force weighted
;14:presto!

adjoint/                file/                   report/
define/                 mesh/                   solve/
display/                parallel/               surface/
exit                    plot/                   views/

> ;set mom
;0:firdst order upwind
;1:second order upwind
;2:power law
;4:quick
;6:third-order muscl

adjoint/                file/                   report/
define/                 mesh/                   solve/
display/                parallel/               surface/
exit                    plot/                   views/

> ;set k
;0:firdst order upwind
;1:second order upwind
;2:power law
;4:quick
;6:third-order muscl

adjoint/                file/                   report/
define/                 mesh/                   solve/
display/                parallel/               surface/
exit                    plot/                   views/

> ;set epdst order upwind
;1:second order upwind
;2:power law
;4:silon
;0:firquick
;6:third-order muscl
;;;;;;;;;;;;;;;;;;;;;;;;;;;;;;;
;;;;;;;;;;;;;;;;;;;;;;;;;;;;;;set monitor point line surface
;;;;;;;;;;;;;;;;;;;;;;;;;;;;;;
/surface/point-surface/ cirPoint1 1.8 2 7

> /surface/point-surface/ cirPoint2 1.5 2 7

> /surface/point-surface/ cirPoint3 1 2 7

> /surface/point-surface/ cirPoint4 0 2 7

> /surface/point-surface/ cirPoint1_synYZ -1.8 2 7

> /surface/point-surface/ cirPoint2_synYZ -1.5 2 7

> /surface/point-surface/ cirPoint3_synYZ -1 2 7

> /surface/point-surface/ cirPoint1_synO -1.8 -2 7

> /surface/point-surface/ cirPoint2_synO -1.5 -2 7

> /surface/point-surface/ cirPoint3_synO -1 -2 7

> 
adjoint/                file/                   report/
define/                 mesh/                   solve/
display/                parallel/               surface/
exit                    plot/                   views/

> /surface/line-surface/ line_1 0 0 2 0 0 7

> 
adjoint/                file/                   report/
define/                 mesh/                   solve/
display/                parallel/               surface/
exit                    plot/                   views/

> /surface/line-surface/ line_2 1 2 2 1 2 7

> /surface/line-surface/ line_2_synYZ -1 2 2 -1 2 7

> 
adjoint/                file/                   report/
define/                 mesh/                   solve/
display/                parallel/               surface/
exit                    plot/                   views/

> /surface/line-surface/ line_3 1.5 2 2 1.5 2 7

> /surface/line-surface/ line_3_synYZ -1.5 2 2 -1.5 2 7

> 
adjoint/                file/                   report/
define/                 mesh/                   solve/
display/                parallel/               surface/
exit                    plot/                   views/

> 
adjoint/                file/                   report/
define/                 mesh/                   solve/
display/                parallel/               surface/
exit                    plot/                   views/

> 
adjoint/                file/                   report/
define/                 mesh/                   solve/
display/                parallel/               surface/
exit                    plot/                   views/

> 
adjoint/                file/                   report/
define/                 mesh/                   solve/
display/                parallel/               surface/
exit                    plot/                   views/

> 
adjoint/                file/                   report/
define/                 mesh/                   solve/
display/                parallel/               surface/
exit                    plot/                   views/

> /surface/plane-slice/ YuanPian_0_0_3 0 0 1 3

> /surface/plane-slice/ YuanPian_0_0_4 0 0 1 4

> /surface/plane-slice/ YuanPian_0_0_5 0 0 1 5

> /surface/plane-slice/ YuanPian_0_0_6 0 0 1 6

> /surface/plane-slice/ YuanPian_0_0_7 0 0 1 7

> 
adjoint/                file/                   report/
define/                 mesh/                   solve/
display/                parallel/               surface/
exit                    plot/                   views/

> /surface/transform-surface/ 10 ()
Center Of Rotation
 0 0 0 
Angle of Rotation
0 0 0 
Translation Distance
0 0 0 0 xiKou 

> 
adjoint/                file/                   report/
define/                 mesh/                   solve/
display/                parallel/               surface/
exit                    plot/                   views/

> 
adjoint/                file/                   report/
define/                 mesh/                   solve/
display/                parallel/               surface/
exit                    plot/                   views/

> 
adjoint/                file/                   report/
define/                 mesh/                   solve/
display/                parallel/               surface/
exit                    plot/                   views/

> 
adjoint/                file/                   report/
define/                 mesh/                   solve/
display/                parallel/               surface/
exit                    plot/                   views/

> ;/solve/monitors/surface/set-monitor miao_V_huan_2 ? velocity-magnitude miao31 miao32 miao33 miao34 miao35 miao36   n n y miao_V_huan_2 100

adjoint/                file/                   report/
define/                 mesh/                   solve/
display/                parallel/               surface/
exit                    plot/                   views/

> 
adjoint/                file/                   report/
define/                 mesh/                   solve/
display/                parallel/               surface/
exit                    plot/                   views/

> /solve/monitors/surface/set-monitor cirPoint1  "Sum" velocity-magnitude cirPoint1 () n n y E:\LGF\Sim\task\0826_1\P_85\txtData\cirPoint1_-3800.txt 100
Information: Converting monitor cirpoint1 to report definition.

> /solve/monitors/surface/set-monitor cirPoint2  "Sum" velocity-magnitude cirPoint2 () n n y E:\LGF\Sim\task\0826_1\P_85\txtData\cirPoint2_-3800.txt 100
Information: Converting monitor cirpoint2 to report definition.

> /solve/monitors/surface/set-monitor cirPoint3  "Sum" velocity-magnitude cirPoint3 () n n y E:\LGF\Sim\task\0826_1\P_85\txtData\cirPoint3_-3800.txt 100
Information: Converting monitor cirpoint3 to report definition.

> /solve/monitors/surface/set-monitor cirPoint1-2  "Sum" velocity-magnitude cirPoint1 cirPoint2 () n n y E:\LGF\Sim\task\0826_1\P_85\txtData\cirPoint1-2_-3800.txt 100
Information: Converting monitor cirpoint1-2 to report definition.

> 
adjoint/                file/                   report/
define/                 mesh/                   solve/
display/                parallel/               surface/
exit                    plot/                   views/

> /solve/monitors/surface/set-monitor line_1   "Facet Average" velocity-magnitude line_1 () n n y E:\LGF\Sim\task\0826_1\P_85\txtData\line_1_-3800.txt 100
Information: Converting monitor line_1 to report definition.

> /solve/monitors/surface/set-monitor line_2   "Facet Average" velocity-magnitude line_2 () n n y E:\LGF\Sim\task\0826_1\P_85\txtData\line_2_-3800.txt 100
Information: Converting monitor line_2 to report definition.

> 
adjoint/                file/                   report/
define/                 mesh/                   solve/
display/                parallel/               surface/
exit                    plot/                   views/

> /solve/monitors/surface/set-monitor YuanPian_0_0_5   "Facet Average" velocity-magnitude YuanPian_0_0_5 () n n y E:\LGF\Sim\task\0826_1\P_85\txtData\YuanPian_0_0_5_-3800.txt 100
Information: Converting monitor yuanpian_0_0_5 to report definition.

> 
adjoint/                file/                   report/
define/                 mesh/                   solve/
display/                parallel/               surface/
exit                    plot/                   views/

> /solve/monitors/surface/set-monitor xiKou   "Facet Average" velocity-magnitude xiKou () n n y E:\LGF\Sim\task\0826_1\P_85\txtData\xiKou_-3800.txt 100
Information: Converting monitor xikou to report definition.

> 
adjoint/                file/                   report/
define/                 mesh/                   solve/
display/                parallel/               surface/
exit                    plot/                   views/

> ;/solve/monitors/surface/set-monitor miao_V_huan_4  "Sum" velocity-magnitude miao37 () n n y E:\LGF\Sim\task\0826_1\P_85\txtData\miao_V_huan_4_-3800.txt 100

adjoint/                file/                   report/
define/                 mesh/                   solve/
display/                parallel/               surface/
exit                    plot/                   views/

> ;set monitor residuals
/solve/monitors/residual/convergence-criteria 0.000001 0.000001 0.000001 0.000001 0.000001 0.000001

> 
adjoint/                file/                   report/
define/                 mesh/                   solve/
display/                parallel/               surface/
exit                    plot/                   views/

> ;set force monitors
;compile C
;/define/user-defined/compiled-functions/compile libudf yes FandMmonitor.c "" "" 
; load C
;/define/user-defined/compiled-functions/load libudf
;;    set hook
;/define/user-defined/function-hooks/execute-at-end "force_and_moment_print::libudf" "" 

adjoint/                file/                   report/
define/                 mesh/                   solve/
display/                parallel/               surface/
exit                    plot/                   views/

> ;/solve/monitors/force/set-drag-monitor cx y che1 zxj1 zxj2 che2 zxj3 zxj4 che3 zxj5 zxj6 () n y "cx-CRH380A" n y 1 0 0
;/solve/monitors/force/set-drag-monitor cy y che1 zxj1 zxj2 che2 zxj3 zxj4 che3 zxj5 zxj6 () n y "cy-1D-30" n y 0 1 0
;/solve/monitors/force/set-drag-monitor cz y che1 zxj1 zxj2 che2 zxj3 zxj4 che3 zxj5 zxj6 () n y "cz-CRH380A" n y 0 0 1

adjoint/                file/                   report/
define/                 mesh/                   solve/
display/                parallel/               surface/
exit                    plot/                   views/

> ;/solve/monitors/force/set-moment-monitor mx y che1 zxj1 zxj2 fd1 che2 zxj3 zxj4 fd2 che3 zxj5 zxj6 () n y "mx-1D-30" n y 0 0 0 1 0 0
;/solve/monitors/force/set-moment-monitor my y che1 zxj1 zxj2 fd1 che2 zxj3 zxj4 fd2 che3 zxj5 zxj6 () n y "my-1D-30" n y 0 0 0 0 1 0
;/solve/monitors/force/set-moment-monitor mz y che1 zxj1 zxj2 fd1 che2 zxj3 zxj4 fd2 che3 zxj5 zxj6 () n y "mz-1D-30" n y 0 0 0 0 0 1

adjoint/                file/                   report/
define/                 mesh/                   solve/
display/                parallel/               surface/
exit                    plot/                   views/

> 
adjoint/                file/                   report/
define/                 mesh/                   solve/
display/                parallel/               surface/
exit                    plot/                   views/

> ;init solve set
/solve/initialize/reference-frame Current Reference Frame : Relative to Cell Zoneabsolute

> /solve/initialize/initialize-flow

> ;solve/set/time-step 0.00005
/solve/iterate 500

  iter  continuity  x-velocity  y-velocity  z-velocity           k     epsilon     time/iter
     1  1.0000e+00  1.0570e+04  9.2552e+02  1.2758e+04  1.4662e+00  9.9639e+02  0:16:38  499

 turbulent viscosity limited to viscosity ratio of 1.000000e+05 in 1 cells 

 Reversed flow on 4385 faces (100.0% area) of pressure-outlet 24.

 Reversed flow on 2646 faces (100.0% area) of pressure-outlet 25.
     2  6.0326e-01  1.1224e-02  8.9007e-03  2.5452e-02  2.3817e-01  1.2830e+00  0:16:36  498

 Reversed flow on 18 faces (3.0% area) of pressure-outlet 22.

 Reversed flow on 3437 faces (75.4% area) of pressure-outlet 24.
     3  7.1772e-01  2.7335e-02  2.4055e-02  2.6010e-02  2.5714e-01  7.1429e-01  0:14:55  497

 Reversed flow on 16 faces (2.8% area) of pressure-outlet 22.

 Reversed flow on 2057 faces (53.6% area) of pressure-outlet 24.

 Reversed flow on 1063 faces (25.1% area) of pressure-outlet 25.
     4  5.7657e-01  1.1806e-02  1.1178e-02  1.6234e-02  1.0936e-01  5.4471e-01  0:15:13  496

 Reversed flow on 17 faces (3.0% area) of pressure-outlet 22.

 Reversed flow on 2237 faces (57.7% area) of pressure-outlet 24.

 Reversed flow on 209 faces (2.7% area) of pressure-outlet 25.
     5  5.0901e-01  1.1644e-02  1.0627e-02  9.1980e-03  6.0903e-02  4.0814e-01  0:15:27  495

 Reversed flow on 3 faces (0.6% area) of pressure-outlet 22.

 Reversed flow on 2850 faces (72.0% area) of pressure-outlet 24.

 Reversed flow on 1243 faces (33.4% area) of pressure-outlet 25.
     6  4.5970e-01  8.8973e-03  8.1723e-03  7.8248e-03  3.2228e-02  2.5574e-01  0:13:59  494

 Reversed flow on 2567 faces (64.9% area) of pressure-outlet 24.

 Reversed flow on 863 faces (16.1% area) of pressure-outlet 25.
     7  4.2648e-01  7.1528e-03  6.3845e-03  5.3358e-03  2.0407e-02  9.4807e-02  0:12:48  493

 Reversed flow on 2702 faces (68.3% area) of pressure-outlet 24.

 Reversed flow on 1298 faces (35.3% area) of pressure-outlet 25.
     8  3.9870e-01  6.4262e-03  5.8505e-03  4.9528e-03  1.8225e-02  1.1698e-01  0:13:30  492

 Reversed flow on 2489 faces (62.6% area) of pressure-outlet 24.

 Reversed flow on 1128 faces (27.4% area) of pressure-outlet 25.
     9  3.7046e-01  5.2581e-03  4.7744e-03  3.9733e-03  1.6261e-02  1.0520e-01  0:14:03  491

 turbulent viscosity limited to viscosity ratio of 1.000000e+05 in 877 cells 

 Reversed flow on 2564 faces (64.3% area) of pressure-outlet 24.

 Reversed flow on 1256 faces (33.3% area) of pressure-outlet 25.
    10  3.5073e-01  4.8614e-03  4.5107e-03  3.7328e-03  1.1975e-02  7.6932e-02  0:12:51  490

 turbulent viscosity limited to viscosity ratio of 1.000000e+05 in 6975 cells 

 Reversed flow on 2586 faces (65.0% area) of pressure-outlet 24.

 Reversed flow on 1155 faces (28.7% area) of pressure-outlet 25.
    11  3.2136e-01  4.0692e-03  3.8331e-03  3.2894e-03  9.1561e-03  6.0605e-02  0:13:31  489

 Reversed flow on 2889 faces (73.2% area) of pressure-outlet 24.

 Reversed flow on 383 faces (15.2% area) of pressure-outlet 25.

  iter  continuity  x-velocity  y-velocity  z-velocity           k     epsilon     time/iter
    12  3.0252e-01  3.8296e-03  3.6835e-03  3.2454e-03  8.0683e-03  4.1971e-02  0:14:03  488

 Reversed flow on 3128 faces (79.1% area) of pressure-outlet 24.

 Reversed flow on 650 faces (31.2% area) of pressure-outlet 25.
    13  2.8364e-01  3.5750e-03  3.4348e-03  3.0067e-03  7.4348e-03  3.1273e-02  0:14:28  487

 turbulent viscosity limited to viscosity ratio of 1.000000e+05 in 4 cells 

 Reversed flow on 3500 faces (87.9% area) of pressure-outlet 24.

 Reversed flow on 909 faces (43.5% area) of pressure-outlet 25.
    14  2.6989e-01  3.4353e-03  3.2804e-03  3.0329e-03  7.8075e-03  2.7544e-02  0:14:47  486

 turbulent viscosity limited to viscosity ratio of 1.000000e+05 in 32 cells 

 Reversed flow on 3750 faces (93.0% area) of pressure-outlet 24.

 Reversed flow on 1115 faces (53.6% area) of pressure-outlet 25.
    15  2.5570e-01  3.3082e-03  3.1194e-03  3.0076e-03  8.7819e-03  2.6834e-02  0:15:02  485

 turbulent viscosity limited to viscosity ratio of 1.000000e+05 in 220 cells 

 Reversed flow on 4082 faces (97.0% area) of pressure-outlet 24.

 Reversed flow on 1221 faces (58.7% area) of pressure-outlet 25.
    16  2.5076e-01  3.2823e-03  3.0471e-03  3.0605e-03  1.0757e-02  2.9538e-02  0:15:14  484

 turbulent viscosity limited to viscosity ratio of 1.000000e+05 in 629 cells 

 Reversed flow on 4353 faces (99.5% area) of pressure-outlet 24.

 Reversed flow on 1248 faces (60.2% area) of pressure-outlet 25.
    17  2.5041e-01  3.3559e-03  3.0752e-03  3.1647e-03  1.6380e-02  3.7575e-02  0:15:23  483

 turbulent viscosity limited to viscosity ratio of 1.000000e+05 in 1050 cells 

 Reversed flow on 4370 faces (99.6% area) of pressure-outlet 24.

 Reversed flow on 1273 faces (61.4% area) of pressure-outlet 25.
    18  2.4929e-01  3.5220e-03  3.1959e-03  3.3504e-03  2.4060e-02  4.6625e-02  0:15:30  482

 turbulent viscosity limited to viscosity ratio of 1.000000e+05 in 1566 cells 

 Reversed flow on 4380 faces (99.9% area) of pressure-outlet 24.

 Reversed flow on 1306 faces (62.9% area) of pressure-outlet 25.
    19  2.4807e-01  3.6819e-03  3.3293e-03  3.5363e-03  2.5500e-02  4.8798e-02  0:15:34  481

 turbulent viscosity limited to viscosity ratio of 1.000000e+05 in 2198 cells 

 Reversed flow on 4384 faces (100.0% area) of pressure-outlet 24.

 Reversed flow on 1331 faces (64.1% area) of pressure-outlet 25.
    20  2.4935e-01  3.8832e-03  3.4960e-03  3.7583e-03  2.3825e-02  4.6722e-02  0:15:38  480

 turbulent viscosity limited to viscosity ratio of 1.000000e+05 in 3910 cells 

 Reversed flow on 4384 faces (100.0% area) of pressure-outlet 24.

 Reversed flow on 1346 faces (64.7% area) of pressure-outlet 25.
    21  2.5425e-01  4.0774e-03  3.6952e-03  3.9295e-03  2.0749e-02  4.1318e-02  0:14:05  479

 turbulent viscosity limited to viscosity ratio of 1.000000e+05 in 9942 cells 

 Reversed flow on 4384 faces (100.0% area) of pressure-outlet 24.

 Reversed flow on 1350 faces (64.8% area) of pressure-outlet 25.
    22  2.6503e-01  4.1343e-03  3.9167e-03  4.0151e-03  1.7732e-02  3.3322e-02  0:16:01  478

 turbulent viscosity limited to viscosity ratio of 1.000000e+05 in 10832 cells 

 Reversed flow on 4367 faces (99.8% area) of pressure-outlet 24.

 Reversed flow on 1362 faces (65.4% area) of pressure-outlet 25.

  iter  continuity  x-velocity  y-velocity  z-velocity           k     epsilon     time/iter
    23  2.7418e-01  3.9706e-03  3.9321e-03  3.9245e-03  1.4057e-02  2.5945e-02  0:15:58  477

 turbulent viscosity limited to viscosity ratio of 1.000000e+05 in 8662 cells 

 Reversed flow on 4383 faces (100.0% area) of pressure-outlet 24.

 Reversed flow on 1367 faces (65.7% area) of pressure-outlet 25.
    24  2.8110e-01  3.7193e-03  3.7436e-03  3.8488e-03  1.2946e-02  2.5439e-02  0:15:55  476

 turbulent viscosity limited to viscosity ratio of 1.000000e+05 in 1540 cells 

 Reversed flow on 4385 faces (100.0% area) of pressure-outlet 24.

 Reversed flow on 1367 faces (65.7% area) of pressure-outlet 25.
    25  2.8989e-01  3.5554e-03  3.5354e-03  3.8213e-03  1.2572e-02  2.7313e-02  0:14:18  475

 turbulent viscosity limited to viscosity ratio of 1.000000e+05 in 84 cells 

 Reversed flow on 4385 faces (100.0% area) of pressure-outlet 24.

 Reversed flow on 1367 faces (65.7% area) of pressure-outlet 25.
    26  2.9613e-01  3.3941e-03  3.2753e-03  3.6796e-03  1.1339e-02  2.8086e-02  0:14:34  474

 turbulent viscosity limited to viscosity ratio of 1.000000e+05 in 683 cells 

 Reversed flow on 4385 faces (100.0% area) of pressure-outlet 24.

 Reversed flow on 1365 faces (65.5% area) of pressure-outlet 25.
    27  2.9939e-01  3.2296e-03  3.0747e-03  3.4922e-03  1.0808e-02  2.7136e-02  0:14:47  473

 turbulent viscosity limited to viscosity ratio of 1.000000e+05 in 1131 cells 

 Reversed flow on 4385 faces (100.0% area) of pressure-outlet 24.

 Reversed flow on 1366 faces (65.6% area) of pressure-outlet 25.
    28  3.0057e-01  3.0557e-03  2.9159e-03  3.2942e-03  1.0315e-02  2.4528e-02  0:13:23  472

 turbulent viscosity limited to viscosity ratio of 1.000000e+05 in 386 cells 

 Reversed flow on 4385 faces (100.0% area) of pressure-outlet 24.

 Reversed flow on 1362 faces (65.3% area) of pressure-outlet 25.
    29  2.9457e-01  2.7769e-03  2.6875e-03  3.0122e-03  9.4160e-03  2.1684e-02  0:13:49  471

 turbulent viscosity limited to viscosity ratio of 1.000000e+05 in 241 cells 

 Reversed flow on 4385 faces (100.0% area) of pressure-outlet 24.

 Reversed flow on 1349 faces (64.8% area) of pressure-outlet 25.
    30  2.8483e-01  2.5423e-03  2.5090e-03  2.7991e-03  8.2540e-03  1.9685e-02  0:14:10  470

 Reversed flow on 4385 faces (100.0% area) of pressure-outlet 24.

 Reversed flow on 1351 faces (64.8% area) of pressure-outlet 25.
    31  2.7465e-01  2.3570e-03  2.3865e-03  2.6462e-03  7.3085e-03  1.8198e-02  0:12:52  469

 Reversed flow on 4385 faces (100.0% area) of pressure-outlet 24.

 Reversed flow on 1358 faces (65.2% area) of pressure-outlet 25.
    32  2.6612e-01  2.2105e-03  2.2676e-03  2.5080e-03  6.4376e-03  1.6477e-02  0:13:24  468

 Reversed flow on 4385 faces (100.0% area) of pressure-outlet 24.

 Reversed flow on 1370 faces (65.8% area) of pressure-outlet 25.
    33  2.5913e-01  2.1073e-03  2.1558e-03  2.3782e-03  5.7685e-03  1.4974e-02  0:12:15  467

 Reversed flow on 4385 faces (100.0% area) of pressure-outlet 24.

 Reversed flow on 1398 faces (67.2% area) of pressure-outlet 25.

  iter  continuity  x-velocity  y-velocity  z-velocity           k     epsilon     time/iter
    34  2.5328e-01  2.0347e-03  2.0494e-03  2.2509e-03  5.2140e-03  1.3667e-02  0:12:53  466

 Reversed flow on 4380 faces (99.9% area) of pressure-outlet 24.

 Reversed flow on 1426 faces (68.5% area) of pressure-outlet 25.
    35  2.4883e-01  1.9818e-03  1.9547e-03  2.1319e-03  4.7559e-03  1.2358e-02  0:13:23  465

 Reversed flow on 4294 faces (98.5% area) of pressure-outlet 24.

 Reversed flow on 1452 faces (69.7% area) of pressure-outlet 25.
    36  2.4511e-01  1.9361e-03  1.8727e-03  2.0243e-03  4.3580e-03  1.1072e-02  0:12:14  464

 Reversed flow on 3980 faces (91.9% area) of pressure-outlet 24.

 Reversed flow on 1469 faces (70.5% area) of pressure-outlet 25.
    37  2.4135e-01  1.8863e-03  1.8097e-03  1.9251e-03  3.9732e-03  9.8822e-03  0:12:51  463

 Reversed flow on 3863 faces (89.3% area) of pressure-outlet 24.

 Reversed flow on 1487 faces (71.4% area) of pressure-outlet 25.
    38  2.3772e-01  1.8427e-03  1.7612e-03  1.8371e-03  3.6545e-03  8.9819e-03  0:11:48  462

 Reversed flow on 3790 faces (87.5% area) of pressure-outlet 24.

 Reversed flow on 1507 faces (72.4% area) of pressure-outlet 25.
    39  2.3416e-01  1.7952e-03  1.7244e-03  1.7611e-03  3.3630e-03  7.9405e-03  0:10:57  461

 Reversed flow on 3800 faces (87.8% area) of pressure-outlet 24.

 Reversed flow on 1530 faces (73.3% area) of pressure-outlet 25.
    40  2.3110e-01  1.7555e-03  1.6849e-03  1.6967e-03  3.1969e-03  7.4957e-03  0:11:49  460

 Reversed flow on 3940 faces (90.5% area) of pressure-outlet 24.

 Reversed flow on 1548 faces (74.1% area) of pressure-outlet 25.
    41  2.2814e-01  1.7234e-03  1.6544e-03  1.6477e-03  3.0231e-03  7.0536e-03  0:10:58  459

 Reversed flow on 4028 faces (92.4% area) of pressure-outlet 24.

 Reversed flow on 1555 faces (74.3% area) of pressure-outlet 25.
    42  2.2562e-01  1.6973e-03  1.6236e-03  1.6067e-03  2.9504e-03  7.1571e-03  0:11:48  458

 Reversed flow on 4121 faces (94.7% area) of pressure-outlet 24.

 Reversed flow on 1559 faces (74.4% area) of pressure-outlet 25.
    43  2.2303e-01  1.6628e-03  1.6068e-03  1.5743e-03  2.8172e-03  6.7695e-03  0:10:57  457

 Reversed flow on 4224 faces (96.9% area) of pressure-outlet 24.

 Reversed flow on 1560 faces (74.5% area) of pressure-outlet 25.
    44  2.2052e-01  1.6344e-03  1.5868e-03  1.5413e-03  2.8176e-03  7.0827e-03  0:11:47  456

 Reversed flow on 4363 faces (99.5% area) of pressure-outlet 24.

 Reversed flow on 1559 faces (74.4% area) of pressure-outlet 25.

  iter  continuity  x-velocity  y-velocity  z-velocity           k     epsilon     time/iter
    45  2.1800e-01  1.6046e-03  1.5775e-03  1.5145e-03  2.7211e-03  6.7944e-03  0:12:26  455

 Reversed flow on 4385 faces (100.0% area) of pressure-outlet 24.

 Reversed flow on 1550 faces (74.0% area) of pressure-outlet 25.
    46  2.1652e-01  1.5878e-03  1.5703e-03  1.4943e-03  2.8043e-03  7.0220e-03  0:11:26  454

 Reversed flow on 4385 faces (100.0% area) of pressure-outlet 24.

 Reversed flow on 1549 faces (73.9% area) of pressure-outlet 25.
    47  2.1563e-01  1.5706e-03  1.5726e-03  1.4835e-03  2.7653e-03  6.4539e-03  0:12:09  453

 Reversed flow on 4385 faces (100.0% area) of pressure-outlet 24.

 Reversed flow on 1550 faces (74.0% area) of pressure-outlet 25.
    48  2.1608e-01  1.5638e-03  1.5604e-03  1.4769e-03  2.8549e-03  6.5198e-03  0:12:43  452

 Reversed flow on 4385 faces (100.0% area) of pressure-outlet 24.

 Reversed flow on 1556 faces (74.3% area) of pressure-outlet 25.
    49  2.1694e-01  1.5582e-03  1.5422e-03  1.4700e-03  2.7259e-03  5.8260e-03  0:13:09  451

 Reversed flow on 4385 faces (100.0% area) of pressure-outlet 24.

 Reversed flow on 1559 faces (74.4% area) of pressure-outlet 25.
    50  2.1736e-01  1.5507e-03  1.5147e-03  1.4637e-03  2.7617e-03  5.7441e-03  0:12:00  450

 Reversed flow on 4385 faces (100.0% area) of pressure-outlet 24.

 Reversed flow on 1556 faces (74.3% area) of pressure-outlet 25.
    51  2.1765e-01  1.5355e-03  1.4909e-03  1.4601e-03  2.6392e-03  5.4667e-03  0:12:34  449

 Reversed flow on 4385 faces (100.0% area) of pressure-outlet 24.

 Reversed flow on 1556 faces (74.3% area) of pressure-outlet 25.
    52  2.1781e-01  1.5168e-03  1.4712e-03  1.4559e-03  2.6788e-03  5.7786e-03  0:11:32  448

 Reversed flow on 4385 faces (100.0% area) of pressure-outlet 24.

 Reversed flow on 1556 faces (74.3% area) of pressure-outlet 25.
    53  2.1875e-01  1.5045e-03  1.4630e-03  1.4525e-03  2.5897e-03  5.5748e-03  0:12:11  447

 Reversed flow on 4385 faces (100.0% area) of pressure-outlet 24.

 Reversed flow on 1563 faces (74.7% area) of pressure-outlet 25.
    54  2.2045e-01  1.4988e-03  1.4601e-03  1.4545e-03  2.6751e-03  5.8942e-03  0:11:13  446

 Reversed flow on 4385 faces (100.0% area) of pressure-outlet 24.

 Reversed flow on 1562 faces (74.7% area) of pressure-outlet 25.
    55  2.2298e-01  1.4987e-03  1.4720e-03  1.4610e-03  2.6732e-03  6.0548e-03  0:11:55  445

 Reversed flow on 4385 faces (100.0% area) of pressure-outlet 24.

 Reversed flow on 1561 faces (74.7% area) of pressure-outlet 25.

  iter  continuity  x-velocity  y-velocity  z-velocity           k     epsilon     time/iter
    56  2.2596e-01  1.5085e-03  1.5063e-03  1.4814e-03  2.7876e-03  6.6297e-03  0:10:59  444

 Reversed flow on 4385 faces (100.0% area) of pressure-outlet 24.

 Reversed flow on 1562 faces (74.7% area) of pressure-outlet 25.
    57  2.2961e-01  1.5314e-03  1.5590e-03  1.5148e-03  2.8295e-03  6.8512e-03  0:10:15  443

 Reversed flow on 4385 faces (100.0% area) of pressure-outlet 24.

 Reversed flow on 1560 faces (74.6% area) of pressure-outlet 25.
    58  2.3452e-01  1.5680e-03  1.6212e-03  1.5587e-03  2.9313e-03  7.4370e-03  0:11:08  442

 Reversed flow on 4385 faces (100.0% area) of pressure-outlet 24.

 Reversed flow on 1561 faces (74.6% area) of pressure-outlet 25.
    59  2.4027e-01  1.6275e-03  1.6891e-03  1.6124e-03  2.9780e-03  7.3898e-03  0:10:21  441

 Reversed flow on 4342 faces (98.9% area) of pressure-outlet 24.

 Reversed flow on 1559 faces (74.6% area) of pressure-outlet 25.
    60  2.4694e-01  1.6949e-03  1.7600e-03  1.6731e-03  3.0746e-03  7.6334e-03  0:11:12  440

 Reversed flow on 4267 faces (96.9% area) of pressure-outlet 24.

 Reversed flow on 1557 faces (74.5% area) of pressure-outlet 25.
    61  2.5412e-01  1.7673e-03  1.8298e-03  1.7332e-03  3.1449e-03  7.7490e-03  0:11:52  439

 Reversed flow on 4212 faces (95.5% area) of pressure-outlet 24.

 Reversed flow on 1561 faces (74.7% area) of pressure-outlet 25.
    62  2.6137e-01  1.8245e-03  1.8866e-03  1.7881e-03  3.2014e-03  8.0361e-03  0:10:56  438

 Reversed flow on 4172 faces (94.5% area) of pressure-outlet 24.

 Reversed flow on 1562 faces (74.7% area) of pressure-outlet 25.
    63  2.6727e-01  1.8596e-03  1.9182e-03  1.8369e-03  3.2229e-03  7.7637e-03  0:11:38  437

 Reversed flow on 4144 faces (93.9% area) of pressure-outlet 24.

 Reversed flow on 1566 faces (74.9% area) of pressure-outlet 25.
    64  2.7226e-01  1.8735e-03  1.9305e-03  1.8768e-03  3.2293e-03  8.1923e-03  0:12:12  436

 Reversed flow on 4132 faces (93.5% area) of pressure-outlet 24.

 Reversed flow on 1571 faces (75.1% area) of pressure-outlet 25.
    65  2.7528e-01  1.8710e-03  1.9149e-03  1.8986e-03  3.2032e-03  8.3010e-03  0:11:11  435

 Reversed flow on 4133 faces (93.6% area) of pressure-outlet 24.

 Reversed flow on 1575 faces (75.3% area) of pressure-outlet 25.
    66  2.7647e-01  1.8485e-03  1.8917e-03  1.8901e-03  3.1467e-03  8.0392e-03  0:10:22  434

 Reversed flow on 4139 faces (93.6% area) of pressure-outlet 24.

 Reversed flow on 1579 faces (75.5% area) of pressure-outlet 25.

  iter  continuity  x-velocity  y-velocity  z-velocity           k     epsilon     time/iter
    67  2.7584e-01  1.8137e-03  1.8577e-03  1.8617e-03  3.1086e-03  7.7844e-03  0:09:43  433

 Reversed flow on 4154 faces (93.9% area) of pressure-outlet 24.

 Reversed flow on 1579 faces (75.5% area) of pressure-outlet 25.
    68  2.7306e-01  1.7762e-03  1.8186e-03  1.8262e-03  3.0762e-03  7.8633e-03  0:10:38  432

 Reversed flow on 4171 faces (94.3% area) of pressure-outlet 24.

 Reversed flow on 1579 faces (75.5% area) of pressure-outlet 25.
    69  2.6996e-01  1.7347e-03  1.7729e-03  1.7914e-03  2.9843e-03  7.4464e-03  0:11:22  431

 Reversed flow on 4200 faces (95.0% area) of pressure-outlet 24.

 Reversed flow on 1581 faces (75.6% area) of pressure-outlet 25.
    70  2.6658e-01  1.7042e-03  1.7235e-03  1.7565e-03  2.8980e-03  7.3573e-03  0:10:30  430

 Reversed flow on 4231 faces (95.8% area) of pressure-outlet 24.

 Reversed flow on 1579 faces (75.5% area) of pressure-outlet 25.
    71  2.6438e-01  1.6726e-03  1.6782e-03  1.7221e-03  2.7668e-03  7.0840e-03  0:11:15  429

 Reversed flow on 4267 faces (96.6% area) of pressure-outlet 24.

 Reversed flow on 1577 faces (75.4% area) of pressure-outlet 25.
    72  2.6240e-01  1.6444e-03  1.6314e-03  1.6912e-03  2.7178e-03  6.9911e-03  0:11:50  428

 Reversed flow on 4287 faces (97.2% area) of pressure-outlet 24.

 Reversed flow on 1577 faces (75.4% area) of pressure-outlet 25.
    73  2.6032e-01  1.6142e-03  1.5938e-03  1.6635e-03  2.5961e-03  6.3567e-03  0:10:52  427

 Reversed flow on 4298 faces (97.6% area) of pressure-outlet 24.

 Reversed flow on 1575 faces (75.3% area) of pressure-outlet 25.
    74  2.5824e-01  1.5974e-03  1.5671e-03  1.6356e-03  2.6047e-03  6.3742e-03  0:10:05  426

 Reversed flow on 4298 faces (97.6% area) of pressure-outlet 24.

 Reversed flow on 1576 faces (75.4% area) of pressure-outlet 25.
    75  2.5752e-01  1.5802e-03  1.5524e-03  1.6067e-03  2.5204e-03  6.2008e-03  0:10:53  425

 Reversed flow on 4297 faces (97.6% area) of pressure-outlet 24.

 Reversed flow on 1579 faces (75.5% area) of pressure-outlet 25.
    76  2.5729e-01  1.5656e-03  1.5407e-03  1.5824e-03  2.5454e-03  6.1600e-03  0:10:06  424

 Reversed flow on 4289 faces (97.5% area) of pressure-outlet 24.

 Reversed flow on 1582 faces (75.6% area) of pressure-outlet 25.
    77  2.5774e-01  1.5494e-03  1.5345e-03  1.5604e-03  2.4591e-03  5.9933e-03  0:09:28  423

 Reversed flow on 4182 faces (95.3% area) of pressure-outlet 24.

 Reversed flow on 1580 faces (75.6% area) of pressure-outlet 25.

  iter  continuity  x-velocity  y-velocity  z-velocity           k     epsilon     time/iter
    78  2.5863e-01  1.5314e-03  1.5331e-03  1.5431e-03  2.4953e-03  5.8693e-03  0:10:22  422

 Reversed flow on 4101 faces (93.5% area) of pressure-outlet 24.

 Reversed flow on 1584 faces (75.7% area) of pressure-outlet 25.
    79  2.5877e-01  1.5120e-03  1.5215e-03  1.5273e-03  2.4416e-03  5.7867e-03  0:11:05  421

 Reversed flow on 4036 faces (92.1% area) of pressure-outlet 24.

 Reversed flow on 1582 faces (75.7% area) of pressure-outlet 25.
    80  2.5797e-01  1.4838e-03  1.5087e-03  1.5069e-03  2.4360e-03  5.6731e-03  0:10:15  420

 Reversed flow on 4003 faces (91.2% area) of pressure-outlet 24.

 Reversed flow on 1581 faces (75.6% area) of pressure-outlet 25.
    81  2.5654e-01  1.4626e-03  1.4900e-03  1.4862e-03  2.4263e-03  5.8617e-03  0:10:58  419

 Reversed flow on 3983 faces (90.6% area) of pressure-outlet 24.

 Reversed flow on 1580 faces (75.5% area) of pressure-outlet 25.
    82  2.5568e-01  1.4341e-03  1.4725e-03  1.4717e-03  2.4228e-03  5.7008e-03  0:11:33  418

 Reversed flow on 4008 faces (90.8% area) of pressure-outlet 24.

 Reversed flow on 1580 faces (75.5% area) of pressure-outlet 25.
    83  2.5512e-01  1.4154e-03  1.4472e-03  1.4625e-03  2.4551e-03  6.0754e-03  0:10:36  417

 Reversed flow on 4020 faces (91.0% area) of pressure-outlet 24.

 Reversed flow on 1576 faces (75.4% area) of pressure-outlet 25.
    84  2.5615e-01  1.3972e-03  1.4344e-03  1.4637e-03  2.4279e-03  5.7430e-03  0:11:14  416

 Reversed flow on 4030 faces (91.1% area) of pressure-outlet 24.

 Reversed flow on 1579 faces (75.5% area) of pressure-outlet 25.
    85  2.5760e-01  1.4004e-03  1.4193e-03  1.4693e-03  2.4918e-03  5.6509e-03  0:10:21  415

 turbulent viscosity limited to viscosity ratio of 1.000000e+05 in 1 cells 

 Reversed flow on 4052 faces (91.7% area) of pressure-outlet 24.

 Reversed flow on 1578 faces (75.5% area) of pressure-outlet 25.
    86  2.6060e-01  1.4043e-03  1.4234e-03  1.4825e-03  2.4530e-03  5.3962e-03  0:11:01  414

 turbulent viscosity limited to viscosity ratio of 1.000000e+05 in 1 cells 

 Reversed flow on 4089 faces (92.6% area) of pressure-outlet 24.

 Reversed flow on 1577 faces (75.4% area) of pressure-outlet 25.
    87  2.6474e-01  1.4220e-03  1.4269e-03  1.4961e-03  2.5359e-03  5.8081e-03  0:10:10  413

 turbulent viscosity limited to viscosity ratio of 1.000000e+05 in 5 cells 

 Reversed flow on 4103 faces (92.9% area) of pressure-outlet 24.

 Reversed flow on 1576 faces (75.4% area) of pressure-outlet 25.
    88  2.6864e-01  1.4318e-03  1.4404e-03  1.5076e-03  2.4856e-03  5.5318e-03  0:10:52  412

 turbulent viscosity limited to viscosity ratio of 1.000000e+05 in 7 cells 

 Reversed flow on 4114 faces (93.2% area) of pressure-outlet 24.

 Reversed flow on 1575 faces (75.3% area) of pressure-outlet 25.

  iter  continuity  x-velocity  y-velocity  z-velocity           k     epsilon     time/iter
    89  2.7226e-01  1.4517e-03  1.4475e-03  1.5134e-03  2.5474e-03  5.5558e-03  0:11:25  411

 turbulent viscosity limited to viscosity ratio of 1.000000e+05 in 12 cells 

 Reversed flow on 4120 faces (93.4% area) of pressure-outlet 24.

 Reversed flow on 1576 faces (75.4% area) of pressure-outlet 25.
    90  2.7446e-01  1.4646e-03  1.4614e-03  1.5156e-03  2.4747e-03  5.4933e-03  0:10:28  410

 turbulent viscosity limited to viscosity ratio of 1.000000e+05 in 1 cells 

 Reversed flow on 4065 faces (92.5% area) of pressure-outlet 24.

 Reversed flow on 1574 faces (75.3% area) of pressure-outlet 25.
    91  2.7652e-01  1.4763e-03  1.4683e-03  1.5105e-03  2.5263e-03  5.7610e-03  0:11:05  409

 Reversed flow on 4014 faces (91.5% area) of pressure-outlet 24.

 Reversed flow on 1571 faces (75.2% area) of pressure-outlet 25.
    92  2.7701e-01  1.4749e-03  1.4800e-03  1.5004e-03  2.4257e-03  5.4364e-03  0:10:12  408

 Reversed flow on 3855 faces (88.5% area) of pressure-outlet 24.

 Reversed flow on 1570 faces (75.1% area) of pressure-outlet 25.
    93  2.7626e-01  1.4733e-03  1.4890e-03  1.4915e-03  2.4472e-03  5.4292e-03  0:10:51  407

 Reversed flow on 3664 faces (84.1% area) of pressure-outlet 24.

 Reversed flow on 1568 faces (75.0% area) of pressure-outlet 25.
    94  2.7489e-01  1.4685e-03  1.4956e-03  1.4967e-03  2.4323e-03  5.5623e-03  0:10:01  406

 Reversed flow on 3537 faces (81.3% area) of pressure-outlet 24.

 Reversed flow on 1569 faces (75.1% area) of pressure-outlet 25.
    95  2.7359e-01  1.4635e-03  1.5034e-03  1.5166e-03  2.4658e-03  5.7000e-03  0:10:42  405

 turbulent viscosity limited to viscosity ratio of 1.000000e+05 in 1 cells 

 Reversed flow on 3427 faces (78.5% area) of pressure-outlet 24.

 Reversed flow on 1564 faces (74.8% area) of pressure-outlet 25.
    96  2.7244e-01  1.4703e-03  1.5095e-03  1.5372e-03  2.4722e-03  5.8237e-03  0:09:53  404

 Reversed flow on 3371 faces (77.2% area) of pressure-outlet 24.

 Reversed flow on 1564 faces (74.9% area) of pressure-outlet 25.
    97  2.7235e-01  1.4736e-03  1.5236e-03  1.5558e-03  2.4856e-03  5.8153e-03  0:10:34  403

 Reversed flow on 3331 faces (76.1% area) of pressure-outlet 24.

 Reversed flow on 1565 faces (74.9% area) of pressure-outlet 25.
    98  2.7262e-01  1.4842e-03  1.5277e-03  1.5685e-03  2.5288e-03  5.9983e-03  0:09:47  402

 Reversed flow on 3325 faces (75.9% area) of pressure-outlet 24.

 Reversed flow on 1563 faces (74.8% area) of pressure-outlet 25.
    99  2.7269e-01  1.4925e-03  1.5400e-03  1.5795e-03  2.4830e-03  5.9681e-03  0:10:29  401

 turbulent viscosity limited to viscosity ratio of 1.000000e+05 in 2 cells 

 Reversed flow on 3357 faces (76.2% area) of pressure-outlet 24.

 Reversed flow on 1561 faces (74.7% area) of pressure-outlet 25.

  iter  continuity  x-velocity  y-velocity  z-velocity           k     epsilon     time/iter
   100  2.7249e-01  1.5182e-03  1.5418e-03  1.5886e-03  2.5099e-03  6.2031e-03  0:09:42  400

 turbulent viscosity limited to viscosity ratio of 1.000000e+05 in 3 cells 

 Reversed flow on 3403 faces (76.9% area) of pressure-outlet 24.

 Reversed flow on 1558 faces (74.5% area) of pressure-outlet 25.
   101  2.7288e-01  1.5396e-03  1.5519e-03  1.6028e-03  2.4779e-03  5.9200e-03  0:13:03  399

 turbulent viscosity limited to viscosity ratio of 1.000000e+05 in 4 cells 

 Reversed flow on 3451 faces (77.6% area) of pressure-outlet 24.

 Reversed flow on 1557 faces (74.5% area) of pressure-outlet 25.
   102  2.7450e-01  1.5787e-03  1.5717e-03  1.6280e-03  2.6365e-03  6.3161e-03  0:11:45  398

 Reversed flow on 3492 faces (78.5% area) of pressure-outlet 24.

 Reversed flow on 1559 faces (74.6% area) of pressure-outlet 25.
   103  2.7837e-01  1.6257e-03  1.6138e-03  1.6631e-03  2.6977e-03  6.4824e-03  0:10:42  397

 Reversed flow on 3502 faces (78.6% area) of pressure-outlet 24.

 Reversed flow on 1555 faces (74.4% area) of pressure-outlet 25.
   104  2.8369e-01  1.6914e-03  1.6585e-03  1.7078e-03  2.9016e-03  6.8904e-03  0:09:51  396

 Reversed flow on 3490 faces (78.2% area) of pressure-outlet 24.

 Reversed flow on 1554 faces (74.4% area) of pressure-outlet 25.
   105  2.9077e-01  1.7551e-03  1.7143e-03  1.7624e-03  2.9592e-03  6.9341e-03  0:10:30  395

 Reversed flow on 3474 faces (77.7% area) of pressure-outlet 24.

 Reversed flow on 1550 faces (74.2% area) of pressure-outlet 25.
   106  2.9827e-01  1.8210e-03  1.7647e-03  1.8152e-03  3.1224e-03  7.5595e-03  0:09:41  394

 Reversed flow on 3462 faces (77.4% area) of pressure-outlet 24.

 Reversed flow on 1551 faces (74.2% area) of pressure-outlet 25.
   107  3.0430e-01  1.8753e-03  1.8140e-03  1.8685e-03  3.1813e-03  7.9597e-03  0:10:21  393

 Reversed flow on 3478 faces (77.8% area) of pressure-outlet 24.

 Reversed flow on 1543 faces (73.8% area) of pressure-outlet 25.
   108  3.0939e-01  1.9139e-03  1.8545e-03  1.9196e-03  3.2314e-03  8.0207e-03  0:09:34  392

 Reversed flow on 3481 faces (77.8% area) of pressure-outlet 24.

 Reversed flow on 1546 faces (74.0% area) of pressure-outlet 25.
   109  3.1244e-01  1.9378e-03  1.8813e-03  1.9538e-03  3.2475e-03  8.4126e-03  0:10:14  391

 Reversed flow on 3497 faces (78.2% area) of pressure-outlet 24.

 Reversed flow on 1545 faces (73.9% area) of pressure-outlet 25.
   110  3.1475e-01  1.9523e-03  1.9074e-03  1.9875e-03  3.2523e-03  8.2746e-03  0:09:28  390

 Reversed flow on 3524 faces (78.7% area) of pressure-outlet 24.

 Reversed flow on 1546 faces (74.0% area) of pressure-outlet 25.

  iter  continuity  x-velocity  y-velocity  z-velocity           k     epsilon     time/iter
   111  3.1578e-01  1.9656e-03  1.9241e-03  2.0120e-03  3.3355e-03  8.5886e-03  0:10:09  389

 Reversed flow on 3548 faces (79.2% area) of pressure-outlet 24.

 Reversed flow on 1548 faces (74.1% area) of pressure-outlet 25.
   112  3.1638e-01  1.9826e-03  1.9529e-03  2.0454e-03  3.3211e-03  8.2457e-03  0:09:24  388

 Reversed flow on 3583 faces (79.9% area) of pressure-outlet 24.

 Reversed flow on 1547 faces (74.0% area) of pressure-outlet 25.
   113  3.1752e-01  2.0270e-03  1.9867e-03  2.0822e-03  3.4242e-03  8.5726e-03  0:10:05  387

 Reversed flow on 3600 faces (80.3% area) of pressure-outlet 24.

 Reversed flow on 1553 faces (74.3% area) of pressure-outlet 25.
   114  3.2095e-01  2.0818e-03  2.0407e-03  2.1279e-03  3.3831e-03  8.3563e-03  0:09:20  386

 Reversed flow on 3616 faces (80.8% area) of pressure-outlet 24.

 Reversed flow on 1554 faces (74.3% area) of pressure-outlet 25.
   115  3.2643e-01  2.1457e-03  2.0943e-03  2.1708e-03  3.4733e-03  8.6750e-03  0:10:00  385

 turbulent viscosity limited to viscosity ratio of 1.000000e+05 in 1 cells 

 Reversed flow on 3631 faces (81.1% area) of pressure-outlet 24.

 Reversed flow on 1561 faces (74.6% area) of pressure-outlet 25.
   116  3.3221e-01  2.1929e-03  2.1421e-03  2.2031e-03  3.4183e-03  8.7686e-03  0:10:33  384

 Reversed flow on 3645 faces (81.6% area) of pressure-outlet 24.

 Reversed flow on 1573 faces (75.2% area) of pressure-outlet 25.
   117  3.3642e-01  2.2179e-03  2.1712e-03  2.2216e-03  3.4884e-03  9.4448e-03  0:10:58  383

 turbulent viscosity limited to viscosity ratio of 1.000000e+05 in 2 cells 

 Reversed flow on 3656 faces (81.9% area) of pressure-outlet 24.

 Reversed flow on 1582 faces (75.6% area) of pressure-outlet 25.
   118  3.3939e-01  2.2296e-03  2.1919e-03  2.2306e-03  3.3926e-03  9.3664e-03  0:10:01  382

 turbulent viscosity limited to viscosity ratio of 1.000000e+05 in 14 cells 

 Reversed flow on 3654 faces (82.0% area) of pressure-outlet 24.

 Reversed flow on 1593 faces (76.0% area) of pressure-outlet 25.
   119  3.4154e-01  2.2319e-03  2.2026e-03  2.2325e-03  3.4186e-03  9.3288e-03  0:10:32  381

 turbulent viscosity limited to viscosity ratio of 1.000000e+05 in 34 cells 

 Reversed flow on 3613 faces (81.4% area) of pressure-outlet 24.

 Reversed flow on 1608 faces (76.7% area) of pressure-outlet 25.
   120  3.4262e-01  2.2401e-03  2.2095e-03  2.2333e-03  3.3874e-03  9.4955e-03  0:10:57  380

 turbulent viscosity limited to viscosity ratio of 1.000000e+05 in 49 cells 

 Reversed flow on 3494 faces (78.5% area) of pressure-outlet 24.

 Reversed flow on 1627 faces (77.4% area) of pressure-outlet 25.
   121  3.4522e-01  2.2369e-03  2.2189e-03  2.2497e-03  3.3762e-03  9.3241e-03  0:10:00  379

 turbulent viscosity limited to viscosity ratio of 1.000000e+05 in 47 cells 

 Reversed flow on 3257 faces (73.9% area) of pressure-outlet 24.

 Reversed flow on 1634 faces (77.7% area) of pressure-outlet 25.

  iter  continuity  x-velocity  y-velocity  z-velocity           k     epsilon     time/iter
   122  3.4803e-01  2.2422e-03  2.2319e-03  2.2673e-03  3.3251e-03  9.1831e-03  0:10:30  378

 turbulent viscosity limited to viscosity ratio of 1.000000e+05 in 41 cells 

 Reversed flow on 3184 faces (71.9% area) of pressure-outlet 24.

 Reversed flow on 1649 faces (78.4% area) of pressure-outlet 25.
   123  3.5108e-01  2.2299e-03  2.2519e-03  2.2732e-03  3.2878e-03  8.8023e-03  0:10:53  377

 turbulent viscosity limited to viscosity ratio of 1.000000e+05 in 30 cells 

 Reversed flow on 3183 faces (72.2% area) of pressure-outlet 24.

 Reversed flow on 1665 faces (79.1% area) of pressure-outlet 25.
   124  3.5383e-01  2.2346e-03  2.2543e-03  2.2667e-03  3.3423e-03  9.2235e-03  0:09:56  376

 turbulent viscosity limited to viscosity ratio of 1.000000e+05 in 28 cells 

 Reversed flow on 3288 faces (74.3% area) of pressure-outlet 24.

 Reversed flow on 1663 faces (79.0% area) of pressure-outlet 25.
   125  3.5710e-01  2.2159e-03  2.2633e-03  2.2609e-03  3.2466e-03  8.7707e-03  0:10:26  375

 turbulent viscosity limited to viscosity ratio of 1.000000e+05 in 21 cells 

 Reversed flow on 3385 faces (76.7% area) of pressure-outlet 24.

 Reversed flow on 1660 faces (78.8% area) of pressure-outlet 25.
   126  3.5771e-01  2.2093e-03  2.2499e-03  2.2419e-03  3.2924e-03  9.0137e-03  0:09:34  374

 turbulent viscosity limited to viscosity ratio of 1.000000e+05 in 23 cells 

 Reversed flow on 3466 faces (78.7% area) of pressure-outlet 24.

 Reversed flow on 1659 faces (78.8% area) of pressure-outlet 25.
   127  3.5715e-01  2.1891e-03  2.2331e-03  2.2208e-03  3.1732e-03  8.5475e-03  0:10:07  373

 turbulent viscosity limited to viscosity ratio of 1.000000e+05 in 13 cells 

 Reversed flow on 3559 faces (81.2% area) of pressure-outlet 24.

 Reversed flow on 1652 faces (78.4% area) of pressure-outlet 25.
   128  3.5521e-01  2.1785e-03  2.2012e-03  2.1951e-03  3.2660e-03  9.1683e-03  0:10:33  372

 turbulent viscosity limited to viscosity ratio of 1.000000e+05 in 14 cells 

 Reversed flow on 3635 faces (83.2% area) of pressure-outlet 24.

 Reversed flow on 1643 faces (78.0% area) of pressure-outlet 25.
   129  3.5301e-01  2.1477e-03  2.1750e-03  2.1658e-03  3.1824e-03  9.0281e-03  0:09:39  371

 turbulent viscosity limited to viscosity ratio of 1.000000e+05 in 9 cells 

 Reversed flow on 3733 faces (85.4% area) of pressure-outlet 24.

 Reversed flow on 1629 faces (77.4% area) of pressure-outlet 25.
   130  3.4910e-01  2.1200e-03  2.1375e-03  2.1293e-03  3.2765e-03  9.0837e-03  0:10:10  370

 turbulent viscosity limited to viscosity ratio of 1.000000e+05 in 1 cells 

 Reversed flow on 3809 faces (87.2% area) of pressure-outlet 24.

 Reversed flow on 1619 faces (77.0% area) of pressure-outlet 25.
   131  3.4461e-01  2.0832e-03  2.1059e-03  2.0926e-03  3.1911e-03  8.8618e-03  0:09:21  369

 turbulent viscosity limited to viscosity ratio of 1.000000e+05 in 3 cells 

 Reversed flow on 3865 faces (88.7% area) of pressure-outlet 24.

 Reversed flow on 1606 faces (76.3% area) of pressure-outlet 25.
   132  3.4046e-01  2.0529e-03  2.0789e-03  2.0641e-03  3.2176e-03  9.1878e-03  0:09:55  368

 turbulent viscosity limited to viscosity ratio of 1.000000e+05 in 2 cells 

 Reversed flow on 3919 faces (90.3% area) of pressure-outlet 24.

 Reversed flow on 1597 faces (75.9% area) of pressure-outlet 25.

  iter  continuity  x-velocity  y-velocity  z-velocity           k     epsilon     time/iter
   133  3.3630e-01  2.0201e-03  2.0533e-03  2.0521e-03  3.1492e-03  9.1803e-03  0:09:08  367

 Reversed flow on 3945 faces (91.1% area) of pressure-outlet 24.

 Reversed flow on 1580 faces (75.2% area) of pressure-outlet 25.
   134  3.3283e-01  1.9967e-03  2.0436e-03  2.0594e-03  3.1217e-03  8.5525e-03  0:08:30  366

 Reversed flow on 3961 faces (91.9% area) of pressure-outlet 24.

 Reversed flow on 1553 faces (74.1% area) of pressure-outlet 25.
   135  3.3169e-01  2.0005e-03  2.0468e-03  2.0789e-03  3.1313e-03  9.0072e-03  0:09:13  365

 Reversed flow on 3961 faces (92.2% area) of pressure-outlet 24.

 Reversed flow on 1549 faces (74.0% area) of pressure-outlet 25.
   136  3.3326e-01  2.0235e-03  2.0649e-03  2.1102e-03  3.1702e-03  9.2518e-03  0:08:34  364

 Reversed flow on 3952 faces (92.2% area) of pressure-outlet 24.

 Reversed flow on 1530 faces (73.1% area) of pressure-outlet 25.
   137  3.3638e-01  2.0681e-03  2.0887e-03  2.1425e-03  3.2078e-03  9.6191e-03  0:09:15  363

 Reversed flow on 3932 faces (91.9% area) of pressure-outlet 24.

 Reversed flow on 1531 faces (73.1% area) of pressure-outlet 25.
   138  3.4066e-01  2.1021e-03  2.1261e-03  2.1733e-03  3.1526e-03  9.0524e-03  0:08:35  362

 Reversed flow on 3925 faces (91.8% area) of pressure-outlet 24.

 Reversed flow on 1533 faces (73.2% area) of pressure-outlet 25.
   139  3.4388e-01  2.1286e-03  2.1377e-03  2.1857e-03  3.1713e-03  9.3413e-03  0:08:03  361

 Reversed flow on 3929 faces (91.8% area) of pressure-outlet 24.

 Reversed flow on 1535 faces (73.4% area) of pressure-outlet 25.
   140  3.4577e-01  2.1268e-03  2.1318e-03  2.1867e-03  3.0835e-03  8.8811e-03  0:08:50  360

 Reversed flow on 3942 faces (92.1% area) of pressure-outlet 24.

 Reversed flow on 1538 faces (73.5% area) of pressure-outlet 25.
   141  3.4584e-01  2.1236e-03  2.1004e-03  2.1727e-03  3.0582e-03  8.5731e-03  0:08:14  359

 Reversed flow on 3940 faces (92.1% area) of pressure-outlet 24.

 Reversed flow on 1539 faces (73.6% area) of pressure-outlet 25.
   142  3.4438e-01  2.1067e-03  2.0659e-03  2.1480e-03  2.9178e-03  7.8253e-03  0:08:58  358

 Reversed flow on 3960 faces (92.8% area) of pressure-outlet 24.

 Reversed flow on 1541 faces (73.7% area) of pressure-outlet 25.
   143  3.4156e-01  2.0842e-03  2.0237e-03  2.1100e-03  2.9383e-03  7.8920e-03  0:08:20  357

 Reversed flow on 3960 faces (92.9% area) of pressure-outlet 24.

 Reversed flow on 1540 faces (73.7% area) of pressure-outlet 25.

  iter  continuity  x-velocity  y-velocity  z-velocity           k     epsilon     time/iter
   144  3.3776e-01  2.0499e-03  1.9904e-03  2.0641e-03  2.8437e-03  7.6580e-03  0:07:50  356

 Reversed flow on 3966 faces (93.2% area) of pressure-outlet 24.

 Reversed flow on 1543 faces (73.8% area) of pressure-outlet 25.
   145  3.3337e-01  2.0163e-03  1.9589e-03  2.0123e-03  2.8499e-03  7.4095e-03  0:07:26  355

 Reversed flow on 3977 faces (93.5% area) of pressure-outlet 24.

 Reversed flow on 1550 faces (74.1% area) of pressure-outlet 25.
   146  3.2901e-01  1.9928e-03  1.9292e-03  1.9683e-03  2.8323e-03  7.5631e-03  0:08:18  354

 Reversed flow on 3972 faces (93.5% area) of pressure-outlet 24.

 Reversed flow on 1554 faces (74.3% area) of pressure-outlet 25.
   147  3.2576e-01  1.9665e-03  1.8981e-03  1.9394e-03  2.8650e-03  7.6734e-03  0:08:58  353

 Reversed flow on 3953 faces (93.1% area) of pressure-outlet 24.

 Reversed flow on 1556 faces (74.4% area) of pressure-outlet 25.
   148  3.2286e-01  1.9625e-03  1.8685e-03  1.9246e-03  2.8858e-03  7.6286e-03  0:08:20  352

 Reversed flow on 3948 faces (93.1% area) of pressure-outlet 24.

 Reversed flow on 1565 faces (74.8% area) of pressure-outlet 25.
   149  3.2202e-01  1.9654e-03  1.8453e-03  1.9253e-03  2.8978e-03  7.4521e-03  0:08:59  351

 Reversed flow on 3938 faces (93.0% area) of pressure-outlet 24.

 Reversed flow on 1569 faces (75.0% area) of pressure-outlet 25.
   150  3.2296e-01  1.9862e-03  1.8138e-03  1.9333e-03  2.9860e-03  8.0702e-03  0:08:20  350

 Reversed flow on 3934 faces (92.9% area) of pressure-outlet 24.

 Reversed flow on 1574 faces (75.3% area) of pressure-outlet 25.
   151  3.2426e-01  1.9820e-03  1.7953e-03  1.9457e-03  2.8978e-03  7.3791e-03  0:08:58  349

 Reversed flow on 3923 faces (92.7% area) of pressure-outlet 24.

 Reversed flow on 1579 faces (75.5% area) of pressure-outlet 25.
   152  3.2558e-01  1.9897e-03  1.7784e-03  1.9501e-03  2.9593e-03  7.6219e-03  0:08:19  348

 Reversed flow on 3908 faces (92.2% area) of pressure-outlet 24.

 Reversed flow on 1590 faces (75.9% area) of pressure-outlet 25.
   153  3.2909e-01  1.9750e-03  1.7808e-03  1.9526e-03  2.8641e-03  7.3493e-03  0:08:57  347

 Reversed flow on 3878 faces (91.3% area) of pressure-outlet 24.

 Reversed flow on 1601 faces (76.4% area) of pressure-outlet 25.
   154  3.3246e-01  1.9624e-03  1.7805e-03  1.9523e-03  2.9460e-03  7.6440e-03  0:08:18  346

 Reversed flow on 3835 faces (90.2% area) of pressure-outlet 24.

 Reversed flow on 1603 faces (76.5% area) of pressure-outlet 25.

  iter  continuity  x-velocity  y-velocity  z-velocity           k     epsilon     time/iter
   155  3.3488e-01  1.9271e-03  1.7882e-03  1.9543e-03  2.8187e-03  7.1272e-03  0:07:46  345

 Reversed flow on 3797 faces (89.2% area) of pressure-outlet 24.

 Reversed flow on 1610 faces (76.8% area) of pressure-outlet 25.
   156  3.3645e-01  1.8980e-03  1.7876e-03  1.9549e-03  2.8727e-03  7.1894e-03  0:08:29  344

 Reversed flow on 3789 faces (89.0% area) of pressure-outlet 24.

 Reversed flow on 1614 faces (77.0% area) of pressure-outlet 25.
   157  3.3654e-01  1.8628e-03  1.7917e-03  1.9562e-03  2.7727e-03  7.1907e-03  0:09:03  343

 Reversed flow on 3797 faces (89.1% area) of pressure-outlet 24.

 Reversed flow on 1615 faces (77.0% area) of pressure-outlet 25.
   158  3.3645e-01  1.8374e-03  1.7878e-03  1.9543e-03  2.7685e-03  7.1004e-03  0:08:22  342

 Reversed flow on 3820 faces (89.7% area) of pressure-outlet 24.

 Reversed flow on 1615 faces (77.0% area) of pressure-outlet 25.
   159  3.3522e-01  1.8122e-03  1.7745e-03  1.9382e-03  2.6960e-03  7.3852e-03  0:08:57  341

 Reversed flow on 3839 faces (90.2% area) of pressure-outlet 24.

 Reversed flow on 1614 faces (76.9% area) of pressure-outlet 25.
   160  3.3253e-01  1.7818e-03  1.7482e-03  1.9131e-03  2.6523e-03  7.1539e-03  0:08:16  340

 Reversed flow on 3861 faces (90.6% area) of pressure-outlet 24.

 Reversed flow on 1610 faces (76.7% area) of pressure-outlet 25.
   161  3.2928e-01  1.7522e-03  1.7130e-03  1.8867e-03  2.6364e-03  7.5154e-03  0:08:51  339

 Reversed flow on 3880 faces (91.2% area) of pressure-outlet 24.

 Reversed flow on 1601 faces (76.3% area) of pressure-outlet 25.
   162  3.2638e-01  1.7196e-03  1.6838e-03  1.8610e-03  2.5680e-03  7.0559e-03  0:09:19  338

 Reversed flow on 3899 faces (91.6% area) of pressure-outlet 24.

 Reversed flow on 1594 faces (76.0% area) of pressure-outlet 25.
   163  3.2329e-01  1.7012e-03  1.6557e-03  1.8333e-03  2.6257e-03  7.3288e-03  0:08:33  337

 Reversed flow on 3924 faces (92.1% area) of pressure-outlet 24.

 Reversed flow on 1588 faces (75.7% area) of pressure-outlet 25.
   164  3.2186e-01  1.6783e-03  1.6459e-03  1.8097e-03  2.5624e-03  7.0498e-03  0:09:04  336

 Reversed flow on 3943 faces (92.5% area) of pressure-outlet 24.

 Reversed flow on 1590 faces (75.8% area) of pressure-outlet 25.
   165  3.2184e-01  1.6697e-03  1.6396e-03  1.7921e-03  2.6216e-03  7.4583e-03  0:08:21  335

 Reversed flow on 3943 faces (92.5% area) of pressure-outlet 24.

 Reversed flow on 1590 faces (75.8% area) of pressure-outlet 25.

  iter  continuity  x-velocity  y-velocity  z-velocity           k     epsilon     time/iter
   166  3.2214e-01  1.6595e-03  1.6528e-03  1.7845e-03  2.5855e-03  7.1080e-03  0:08:53  334

 Reversed flow on 3922 faces (92.0% area) of pressure-outlet 24.

 Reversed flow on 1589 faces (75.8% area) of pressure-outlet 25.
   167  3.2274e-01  1.6733e-03  1.6632e-03  1.7830e-03  2.7228e-03  7.4106e-03  0:08:12  333

 Reversed flow on 3888 faces (91.4% area) of pressure-outlet 24.

 Reversed flow on 1589 faces (75.8% area) of pressure-outlet 25.
   168  3.2396e-01  1.6828e-03  1.6810e-03  1.7950e-03  2.6869e-03  7.3870e-03  0:07:39  332

 Reversed flow on 3867 faces (90.9% area) of pressure-outlet 24.

 Reversed flow on 1590 faces (75.8% area) of pressure-outlet 25.
   169  3.2568e-01  1.7054e-03  1.6933e-03  1.8076e-03  2.7574e-03  7.3873e-03  0:08:18  331

 Reversed flow on 3867 faces (90.7% area) of pressure-outlet 24.

 Reversed flow on 1590 faces (75.9% area) of pressure-outlet 25.
   170  3.2757e-01  1.7132e-03  1.7031e-03  1.8119e-03  2.6730e-03  6.9490e-03  0:07:43  330

 Reversed flow on 3895 faces (91.0% area) of pressure-outlet 24.

 Reversed flow on 1589 faces (75.9% area) of pressure-outlet 25.
   171  3.2957e-01  1.7171e-03  1.6989e-03  1.8074e-03  2.7390e-03  6.8845e-03  0:08:21  329

 Reversed flow on 3904 faces (91.2% area) of pressure-outlet 24.

 Reversed flow on 1587 faces (75.8% area) of pressure-outlet 25.
   172  3.3074e-01  1.7151e-03  1.6979e-03  1.7934e-03  2.7318e-03  7.2594e-03  0:07:45  328

 Reversed flow on 3884 faces (90.9% area) of pressure-outlet 24.

 Reversed flow on 1589 faces (75.9% area) of pressure-outlet 25.
   173  3.3095e-01  1.6997e-03  1.6936e-03  1.7786e-03  2.7690e-03  6.9282e-03  0:08:22  327

 Reversed flow on 3874 faces (90.7% area) of pressure-outlet 24.

 Reversed flow on 1588 faces (75.8% area) of pressure-outlet 25.
   174  3.3083e-01  1.6827e-03  1.6865e-03  1.7674e-03  2.7674e-03  6.9911e-03  0:07:45  326

 Reversed flow on 3887 faces (91.1% area) of pressure-outlet 24.

 Reversed flow on 1585 faces (75.6% area) of pressure-outlet 25.
   175  3.3098e-01  1.6648e-03  1.6896e-03  1.7615e-03  2.7715e-03  6.8158e-03  0:08:21  325

 Reversed flow on 3903 faces (91.3% area) of pressure-outlet 24.

 Reversed flow on 1580 faces (75.4% area) of pressure-outlet 25.
   176  3.3270e-01  1.6572e-03  1.6896e-03  1.7646e-03  2.8355e-03  7.0333e-03  0:07:45  324

 Reversed flow on 3899 faces (91.0% area) of pressure-outlet 24.

 Reversed flow on 1579 faces (75.4% area) of pressure-outlet 25.

  iter  continuity  x-velocity  y-velocity  z-velocity           k     epsilon     time/iter
   177  3.3518e-01  1.6429e-03  1.6976e-03  1.7783e-03  2.7784e-03  6.5726e-03  0:08:20  323

 Reversed flow on 3896 faces (90.7% area) of pressure-outlet 24.

 Reversed flow on 1577 faces (75.3% area) of pressure-outlet 25.
   178  3.3840e-01  1.6465e-03  1.6946e-03  1.7938e-03  2.7851e-03  6.7057e-03  0:07:43  322

 Reversed flow on 3875 faces (90.3% area) of pressure-outlet 24.

 Reversed flow on 1576 faces (75.2% area) of pressure-outlet 25.
   179  3.4229e-01  1.6523e-03  1.6976e-03  1.8083e-03  2.6766e-03  6.3552e-03  0:08:18  321

 Reversed flow on 3841 faces (89.7% area) of pressure-outlet 24.

 Reversed flow on 1576 faces (75.2% area) of pressure-outlet 25.
   180  3.4610e-01  1.6693e-03  1.6888e-03  1.8133e-03  2.7032e-03  6.2384e-03  0:08:45  320

 Reversed flow on 3799 faces (89.2% area) of pressure-outlet 24.

 Reversed flow on 1573 faces (75.1% area) of pressure-outlet 25.
   181  3.4760e-01  1.6733e-03  1.6798e-03  1.8072e-03  2.5946e-03  5.9045e-03  0:08:02  319

 Reversed flow on 3770 faces (88.8% area) of pressure-outlet 24.

 Reversed flow on 1570 faces (75.0% area) of pressure-outlet 25.
   182  3.4857e-01  1.6721e-03  1.6640e-03  1.7952e-03  2.6375e-03  5.8448e-03  0:07:28  318

 Reversed flow on 3721 faces (87.7% area) of pressure-outlet 24.

 Reversed flow on 1568 faces (74.9% area) of pressure-outlet 25.
   183  3.4871e-01  1.6636e-03  1.6526e-03  1.7832e-03  2.5519e-03  5.9138e-03  0:07:01  317

 Reversed flow on 3664 faces (86.6% area) of pressure-outlet 24.

 Reversed flow on 1564 faces (74.6% area) of pressure-outlet 25.
   184  3.4772e-01  1.6492e-03  1.6399e-03  1.7690e-03  2.5740e-03  5.6894e-03  0:07:42  316

 Reversed flow on 3607 faces (85.3% area) of pressure-outlet 24.

 Reversed flow on 1563 faces (74.6% area) of pressure-outlet 25.
   185  3.4568e-01  1.6375e-03  1.6263e-03  1.7488e-03  2.5557e-03  6.2059e-03  0:07:11  315

 Reversed flow on 3535 faces (83.8% area) of pressure-outlet 24.

 Reversed flow on 1561 faces (74.5% area) of pressure-outlet 25.
   186  3.4385e-01  1.6167e-03  1.6186e-03  1.7281e-03  2.5534e-03  6.2726e-03  0:07:50  314

 Reversed flow on 3485 faces (82.8% area) of pressure-outlet 24.

 Reversed flow on 1559 faces (74.5% area) of pressure-outlet 25.
[...]

 Reversed flow on 3723 faces (89.1% area) of pressure-outlet 24.

 Reversed flow on 1531 faces (73.3% area) of pressure-outlet 25.
   433  4.2066e-01  2.3567e-03  2.4210e-03  2.5303e-03  3.6144e-03  8.6479e-03  0:01:57   67

 Reversed flow on 3750 faces (89.8% area) of pressure-outlet 24.

 Reversed flow on 1523 faces (72.9% area) of pressure-outlet 25.
   434  4.2406e-01  2.3582e-03  2.4460e-03  2.5517e-03  3.6751e-03  8.8900e-03  0:01:45   66

 Reversed flow on 3774 faces (90.3% area) of pressure-outlet 24.

 Reversed flow on 1507 faces (72.1% area) of pressure-outlet 25.
   435  4.2715e-01  2.3613e-03  2.4686e-03  2.5684e-03  3.7463e-03  9.1632e-03  0:01:49   65

 Reversed flow on 3796 faces (90.7% area) of pressure-outlet 24.

 Reversed flow on 1493 faces (71.5% area) of pressure-outlet 25.
   436  4.2952e-01  2.3758e-03  2.5013e-03  2.5865e-03  3.8289e-03  9.5988e-03  0:01:39   64

 Reversed flow on 3818 faces (91.2% area) of pressure-outlet 24.

 Reversed flow on 1481 faces (70.9% area) of pressure-outlet 25.
   437  4.3070e-01  2.4029e-03  2.5372e-03  2.6182e-03  3.9238e-03  1.0237e-02  0:01:43   63

 Reversed flow on 3835 faces (91.5% area) of pressure-outlet 24.

 Reversed flow on 1470 faces (70.4% area) of pressure-outlet 25.
   438  4.3203e-01  2.4399e-03  2.5755e-03  2.6524e-03  3.9771e-03  1.0633e-02  0:01:46   62

 Reversed flow on 3832 faces (91.4% area) of pressure-outlet 24.

 Reversed flow on 1460 faces (69.9% area) of pressure-outlet 25.
   439  4.3213e-01  2.4728e-03  2.6076e-03  2.6824e-03  4.0623e-03  1.1185e-02  0:01:35   61

 Reversed flow on 3818 faces (91.1% area) of pressure-outlet 24.

 Reversed flow on 1462 faces (70.0% area) of pressure-outlet 25.
   440  4.3102e-01  2.4952e-03  2.6298e-03  2.7096e-03  4.0457e-03  1.0924e-02  0:01:39   60

 Reversed flow on 3811 faces (90.9% area) of pressure-outlet 24.

 Reversed flow on 1469 faces (70.3% area) of pressure-outlet 25.

  iter  continuity  x-velocity  y-velocity  z-velocity           k     epsilon     time/iter
   441  4.3066e-01  2.5156e-03  2.6275e-03  2.7172e-03  4.0961e-03  1.1034e-02  0:01:42   59

 Reversed flow on 3787 faces (90.5% area) of pressure-outlet 24.

 Reversed flow on 1476 faces (70.7% area) of pressure-outlet 25.
   442  4.3106e-01  2.5307e-03  2.6097e-03  2.7189e-03  4.0395e-03  1.0780e-02  0:01:31   58

 Reversed flow on 3759 faces (89.9% area) of pressure-outlet 24.

 Reversed flow on 1484 faces (71.1% area) of pressure-outlet 25.
   443  4.3011e-01  2.5307e-03  2.5908e-03  2.7225e-03  4.1174e-03  1.0981e-02  0:01:35   57

 Reversed flow on 3746 faces (89.5% area) of pressure-outlet 24.

 Reversed flow on 1498 faces (71.7% area) of pressure-outlet 25.
   444  4.3108e-01  2.5274e-03  2.5832e-03  2.7296e-03  4.0448e-03  1.0564e-02  0:01:26   56

 turbulent viscosity limited to viscosity ratio of 1.000000e+05 in 1 cells 

 Reversed flow on 3742 faces (89.4% area) of pressure-outlet 24.

 Reversed flow on 1512 faces (72.4% area) of pressure-outlet 25.
   445  4.3442e-01  2.5298e-03  2.5759e-03  2.7168e-03  3.9725e-03  1.0378e-02  0:01:29   55

 Reversed flow on 3656 faces (87.2% area) of pressure-outlet 24.

 Reversed flow on 1526 faces (73.0% area) of pressure-outlet 25.
   446  4.3933e-01  2.5299e-03  2.5635e-03  2.6915e-03  3.8060e-03  1.0212e-02  0:01:21   54

 Reversed flow on 3546 faces (84.4% area) of pressure-outlet 24.

 Reversed flow on 1536 faces (73.4% area) of pressure-outlet 25.
   447  4.4309e-01  2.5234e-03  2.5370e-03  2.6568e-03  3.6942e-03  9.6474e-03  0:01:25   53

 Reversed flow on 3515 faces (83.4% area) of pressure-outlet 24.

 Reversed flow on 1550 faces (74.1% area) of pressure-outlet 25.
   448  4.4299e-01  2.5079e-03  2.5003e-03  2.6157e-03  3.5575e-03  9.3719e-03  0:01:27   52

 Reversed flow on 3528 faces (83.4% area) of pressure-outlet 24.

 Reversed flow on 1558 faces (74.5% area) of pressure-outlet 25.
   449  4.4141e-01  2.4815e-03  2.4711e-03  2.5773e-03  3.5370e-03  9.4885e-03  0:01:29   51

 Reversed flow on 3547 faces (83.7% area) of pressure-outlet 24.

 Reversed flow on 1565 faces (74.8% area) of pressure-outlet 25.
   450  4.3927e-01  2.4510e-03  2.4529e-03  2.5453e-03  3.5219e-03  9.9844e-03  0:01:20   50

 Reversed flow on 3568 faces (84.2% area) of pressure-outlet 24.

 Reversed flow on 1586 faces (75.7% area) of pressure-outlet 25.
   451  4.3818e-01  2.4047e-03  2.4370e-03  2.5139e-03  3.4565e-03  9.4826e-03  0:01:22   49

 Reversed flow on 3582 faces (84.7% area) of pressure-outlet 24.

 Reversed flow on 1599 faces (76.3% area) of pressure-outlet 25.

  iter  continuity  x-velocity  y-velocity  z-velocity           k     epsilon     time/iter
   452  4.3655e-01  2.3643e-03  2.4064e-03  2.4689e-03  3.4588e-03  9.8153e-03  0:01:24   48

 Reversed flow on 3631 faces (86.1% area) of pressure-outlet 24.

 Reversed flow on 1610 faces (76.8% area) of pressure-outlet 25.
   453  4.3375e-01  2.3116e-03  2.3696e-03  2.4194e-03  3.3631e-03  9.4227e-03  0:01:24   47

 Reversed flow on 3674 faces (87.3% area) of pressure-outlet 24.

 Reversed flow on 1625 faces (77.4% area) of pressure-outlet 25.
   454  4.2903e-01  2.2660e-03  2.3130e-03  2.3552e-03  3.3855e-03  9.8562e-03  0:01:15   46

 turbulent viscosity limited to viscosity ratio of 1.000000e+05 in 1 cells 

 Reversed flow on 3714 faces (88.2% area) of pressure-outlet 24.

 Reversed flow on 1634 faces (77.8% area) of pressure-outlet 25.
   455  4.2312e-01  2.1970e-03  2.2497e-03  2.2766e-03  3.1985e-03  9.1871e-03  0:01:17   45

 turbulent viscosity limited to viscosity ratio of 1.000000e+05 in 2 cells 

 Reversed flow on 3763 faces (89.3% area) of pressure-outlet 24.

 Reversed flow on 1641 faces (78.1% area) of pressure-outlet 25.
   456  4.1510e-01  2.1382e-03  2.1592e-03  2.1893e-03  3.2101e-03  9.1725e-03  0:01:18   44

 turbulent viscosity limited to viscosity ratio of 1.000000e+05 in 1 cells 

 Reversed flow on 3799 faces (90.0% area) of pressure-outlet 24.

 Reversed flow on 1646 faces (78.3% area) of pressure-outlet 25.
   457  4.0590e-01  2.0723e-03  2.0741e-03  2.1113e-03  3.0634e-03  8.7032e-03  0:01:09   43

 turbulent viscosity limited to viscosity ratio of 1.000000e+05 in 5 cells 

 Reversed flow on 3845 faces (91.1% area) of pressure-outlet 24.

 Reversed flow on 1651 faces (78.5% area) of pressure-outlet 25.
   458  3.9743e-01  2.0197e-03  1.9981e-03  2.0512e-03  3.1336e-03  8.8575e-03  0:01:11   42

 turbulent viscosity limited to viscosity ratio of 1.000000e+05 in 2 cells 

 Reversed flow on 3876 faces (91.8% area) of pressure-outlet 24.

 Reversed flow on 1654 faces (78.6% area) of pressure-outlet 25.
   459  3.9015e-01  1.9792e-03  1.9543e-03  2.0142e-03  3.0478e-03  8.7279e-03  0:01:04   41

 turbulent viscosity limited to viscosity ratio of 1.000000e+05 in 4 cells 

 Reversed flow on 3895 faces (92.4% area) of pressure-outlet 24.

 Reversed flow on 1654 faces (78.6% area) of pressure-outlet 25.
   460  3.8469e-01  1.9548e-03  1.9367e-03  1.9961e-03  3.1271e-03  8.5371e-03  0:01:06   40

 turbulent viscosity limited to viscosity ratio of 1.000000e+05 in 13 cells 

 Reversed flow on 3926 faces (93.0% area) of pressure-outlet 24.

 Reversed flow on 1654 faces (78.6% area) of pressure-outlet 25.
   461  3.8067e-01  1.9457e-03  1.9437e-03  1.9941e-03  3.0633e-03  8.5588e-03  0:00:59   39

 turbulent viscosity limited to viscosity ratio of 1.000000e+05 in 27 cells 

 Reversed flow on 3948 faces (93.5% area) of pressure-outlet 24.

 Reversed flow on 1651 faces (78.5% area) of pressure-outlet 25.
   462  3.7838e-01  1.9469e-03  1.9578e-03  1.9992e-03  3.0024e-03  8.3462e-03  0:01:01   38

 turbulent viscosity limited to viscosity ratio of 1.000000e+05 in 49 cells 

 Reversed flow on 3949 faces (93.9% area) of pressure-outlet 24.

 Reversed flow on 1648 faces (78.3% area) of pressure-outlet 25.

  iter  continuity  x-velocity  y-velocity  z-velocity           k     epsilon     time/iter
   463  3.7627e-01  1.9494e-03  1.9539e-03  1.9963e-03  2.9079e-03  8.2054e-03  0:01:02   37

 turbulent viscosity limited to viscosity ratio of 1.000000e+05 in 50 cells 

 Reversed flow on 3952 faces (94.1% area) of pressure-outlet 24.

 Reversed flow on 1646 faces (78.3% area) of pressure-outlet 25.
   464  3.7343e-01  1.9363e-03  1.9422e-03  1.9780e-03  2.7618e-03  7.5723e-03  0:01:03   36

 turbulent viscosity limited to viscosity ratio of 1.000000e+05 in 45 cells 

 Reversed flow on 3968 faces (94.5% area) of pressure-outlet 24.

 Reversed flow on 1641 faces (78.0% area) of pressure-outlet 25.
   465  3.6973e-01  1.9236e-03  1.9102e-03  1.9460e-03  2.6791e-03  7.7643e-03  0:01:03   35

 turbulent viscosity limited to viscosity ratio of 1.000000e+05 in 38 cells 

 Reversed flow on 3994 faces (95.1% area) of pressure-outlet 24.

 Reversed flow on 1639 faces (77.9% area) of pressure-outlet 25.
   466  3.6558e-01  1.8901e-03  1.8822e-03  1.9092e-03  2.5305e-03  7.0242e-03  0:00:56   34

 turbulent viscosity limited to viscosity ratio of 1.000000e+05 in 110 cells 

 Reversed flow on 3952 faces (94.8% area) of pressure-outlet 24.

 Reversed flow on 1637 faces (77.8% area) of pressure-outlet 25.
   467  3.6094e-01  1.8665e-03  1.8513e-03  1.8692e-03  2.5757e-03  6.8726e-03  0:00:57   33

 turbulent viscosity limited to viscosity ratio of 1.000000e+05 in 3 cells 

 Reversed flow on 3968 faces (94.4% area) of pressure-outlet 24.

 Reversed flow on 1635 faces (77.7% area) of pressure-outlet 25.
   468  3.5635e-01  1.8376e-03  1.8303e-03  1.8250e-03  2.7063e-03  6.5345e-03  0:00:50   32

 Reversed flow on 3982 faces (93.9% area) of pressure-outlet 24.

 Reversed flow on 1631 faces (77.5% area) of pressure-outlet 25.
   469  3.5088e-01  1.8162e-03  1.7941e-03  1.7786e-03  2.4632e-03  6.7076e-03  0:00:51   31

 Reversed flow on 4046 faces (93.9% area) of pressure-outlet 24.

 Reversed flow on 1621 faces (77.1% area) of pressure-outlet 25.
   470  3.4576e-01  1.7933e-03  1.7642e-03  1.7379e-03  2.2744e-03  6.2824e-03  0:00:46   30

 Reversed flow on 4076 faces (93.8% area) of pressure-outlet 24.

 Reversed flow on 1614 faces (76.8% area) of pressure-outlet 25.
   471  3.4189e-01  1.7864e-03  1.7366e-03  1.7146e-03  2.3054e-03  6.3885e-03  0:00:47   29

 Reversed flow on 4063 faces (93.5% area) of pressure-outlet 24.

 Reversed flow on 1611 faces (76.7% area) of pressure-outlet 25.
   472  3.3939e-01  1.7791e-03  1.7208e-03  1.7092e-03  2.2396e-03  6.5635e-03  0:00:42   28

 Reversed flow on 4065 faces (93.5% area) of pressure-outlet 24.

 Reversed flow on 1598 faces (76.1% area) of pressure-outlet 25.
   473  3.3883e-01  1.7774e-03  1.7131e-03  1.7202e-03  2.2915e-03  6.3993e-03  0:00:43   27

 Reversed flow on 4073 faces (93.8% area) of pressure-outlet 24.

 Reversed flow on 1591 faces (75.7% area) of pressure-outlet 25.

  iter  continuity  x-velocity  y-velocity  z-velocity           k     epsilon     time/iter
   474  3.4025e-01  1.7791e-03  1.7208e-03  1.7453e-03  2.3037e-03  6.4949e-03  0:00:44   26

 Reversed flow on 4102 faces (94.4% area) of pressure-outlet 24.

 Reversed flow on 1583 faces (75.4% area) of pressure-outlet 25.
   475  3.4384e-01  1.7902e-03  1.7481e-03  1.7835e-03  2.3931e-03  6.4383e-03  0:00:39   25

 Reversed flow on 4115 faces (94.9% area) of pressure-outlet 24.

 Reversed flow on 1574 faces (75.0% area) of pressure-outlet 25.
   476  3.4852e-01  1.8195e-03  1.7829e-03  1.8257e-03  2.4903e-03  7.0669e-03  0:00:39   24

 Reversed flow on 4150 faces (95.7% area) of pressure-outlet 24.

 Reversed flow on 1562 faces (74.5% area) of pressure-outlet 25.
   477  3.5481e-01  1.8531e-03  1.8278e-03  1.8679e-03  2.5809e-03  7.0283e-03  0:00:39   23

 Reversed flow on 4181 faces (96.7% area) of pressure-outlet 24.

 Reversed flow on 1548 faces (73.9% area) of pressure-outlet 25.
   478  3.6145e-01  1.8941e-03  1.8682e-03  1.9000e-03  2.7033e-03  7.6164e-03  0:00:34   22

 Reversed flow on 4218 faces (97.6% area) of pressure-outlet 24.

 Reversed flow on 1534 faces (73.3% area) of pressure-outlet 25.
   479  3.6778e-01  1.9258e-03  1.9122e-03  1.9221e-03  2.6971e-03  7.5088e-03  0:00:30   21

 Reversed flow on 4269 faces (98.6% area) of pressure-outlet 24.

 Reversed flow on 1513 faces (72.4% area) of pressure-outlet 25.
   480  3.7210e-01  1.9499e-03  1.9351e-03  1.9332e-03  2.7933e-03  7.9330e-03  0:00:31   20

 Reversed flow on 4357 faces (99.8% area) of pressure-outlet 24.

 Reversed flow on 1507 faces (72.1% area) of pressure-outlet 25.
   481  3.7347e-01  1.9496e-03  1.9567e-03  1.9402e-03  2.7245e-03  7.6386e-03  0:00:31   19

 Reversed flow on 4385 faces (100.0% area) of pressure-outlet 24.

 Reversed flow on 1500 faces (71.8% area) of pressure-outlet 25.
   482  3.7310e-01  1.9430e-03  1.9600e-03  1.9525e-03  2.7659e-03  7.8254e-03  0:00:27   18

 Reversed flow on 4361 faces (99.8% area) of pressure-outlet 24.

 Reversed flow on 1506 faces (72.1% area) of pressure-outlet 25.
   483  3.7215e-01  1.9347e-03  1.9650e-03  1.9722e-03  2.7114e-03  7.5418e-03  0:00:24   17

 Reversed flow on 4351 faces (99.6% area) of pressure-outlet 24.

 Reversed flow on 1505 faces (72.0% area) of pressure-outlet 25.
   484  3.7189e-01  1.9356e-03  1.9661e-03  2.0034e-03  2.7824e-03  7.6520e-03  0:00:25   16

 Reversed flow on 4349 faces (99.6% area) of pressure-outlet 24.

 Reversed flow on 1505 faces (72.1% area) of pressure-outlet 25.

  iter  continuity  x-velocity  y-velocity  z-velocity           k     epsilon     time/iter
   485  3.7302e-01  1.9438e-03  1.9749e-03  2.0330e-03  2.7461e-03  7.6078e-03  0:00:24   15

 Reversed flow on 4356 faces (99.6% area) of pressure-outlet 24.

 Reversed flow on 1506 faces (72.1% area) of pressure-outlet 25.
   486  3.7545e-01  1.9616e-03  1.9920e-03  2.0658e-03  2.8032e-03  7.6250e-03  0:00:21   14

 Reversed flow on 4368 faces (99.8% area) of pressure-outlet 24.

 Reversed flow on 1510 faces (72.3% area) of pressure-outlet 25.
   487  3.7893e-01  1.9809e-03  2.0176e-03  2.0934e-03  2.8183e-03  7.8410e-03  0:00:21   13

 Reversed flow on 4385 faces (100.0% area) of pressure-outlet 24.

 Reversed flow on 1518 faces (72.7% area) of pressure-outlet 25.
   488  3.8360e-01  2.0029e-03  2.0507e-03  2.1106e-03  2.8986e-03  7.8807e-03  0:00:20   12

 Reversed flow on 4385 faces (100.0% area) of pressure-outlet 24.

 Reversed flow on 1532 faces (73.3% area) of pressure-outlet 25.
   489  3.8822e-01  2.0254e-03  2.0873e-03  2.1184e-03  2.9126e-03  8.4786e-03  0:00:17   11

 turbulent viscosity limited to viscosity ratio of 1.000000e+05 in 11 cells 

 Reversed flow on 4385 faces (100.0% area) of pressure-outlet 24.

 Reversed flow on 1547 faces (74.0% area) of pressure-outlet 25.
   490  3.9405e-01  2.0353e-03  2.1275e-03  2.1261e-03  2.9561e-03  8.6198e-03  0:00:16   10

 turbulent viscosity limited to viscosity ratio of 1.000000e+05 in 21 cells 

 Reversed flow on 4382 faces (99.9% area) of pressure-outlet 24.

 Reversed flow on 1569 faces (75.0% area) of pressure-outlet 25.
   491  3.9919e-01  2.0502e-03  2.1575e-03  2.1304e-03  2.9425e-03  8.7959e-03  0:00:15    9

 turbulent viscosity limited to viscosity ratio of 1.000000e+05 in 22 cells 

 Reversed flow on 4373 faces (99.7% area) of pressure-outlet 24.

 Reversed flow on 1588 faces (75.9% area) of pressure-outlet 25.
   492  4.0387e-01  2.0550e-03  2.1812e-03  2.1386e-03  2.9069e-03  8.6272e-03  0:00:13    8

 turbulent viscosity limited to viscosity ratio of 1.000000e+05 in 14 cells 

 Reversed flow on 4013 faces (92.3% area) of pressure-outlet 24.

 Reversed flow on 1616 faces (77.1% area) of pressure-outlet 25.
   493  4.0772e-01  2.0661e-03  2.1876e-03  2.1524e-03  2.9397e-03  8.9035e-03  0:00:10    7

 Reversed flow on 3691 faces (85.0% area) of pressure-outlet 24.

 Reversed flow on 1636 faces (78.0% area) of pressure-outlet 25.
   494  4.0706e-01  2.0643e-03  2.1916e-03  2.1657e-03  2.8604e-03  8.2629e-03  0:00:09    6

 Reversed flow on 3489 faces (80.2% area) of pressure-outlet 24.

 Reversed flow on 1655 faces (78.7% area) of pressure-outlet 25.
   495  4.0389e-01  2.0722e-03  2.1687e-03  2.1735e-03  2.8805e-03  8.5427e-03  0:00:07    5

 Reversed flow on 3460 faces (79.2% area) of pressure-outlet 24.

 Reversed flow on 1668 faces (79.2% area) of pressure-outlet 25.

  iter  continuity  x-velocity  y-velocity  z-velocity           k     epsilon     time/iter
   496  3.9982e-01  2.0626e-03  2.1478e-03  2.1763e-03  2.7521e-03  8.2195e-03  0:00:06    4

 Reversed flow on 3471 faces (79.3% area) of pressure-outlet 24.

 Reversed flow on 1678 faces (79.6% area) of pressure-outlet 25.
   497  3.9456e-01  2.0634e-03  2.1182e-03  2.1717e-03  2.7804e-03  8.1776e-03  0:00:05    3

 Reversed flow on 3505 faces (80.3% area) of pressure-outlet 24.

 Reversed flow on 1679 faces (79.7% area) of pressure-outlet 25.
   498  3.8960e-01  2.0502e-03  2.1029e-03  2.1609e-03  2.6511e-03  7.8767e-03  0:00:03    2

 Reversed flow on 3559 faces (81.5% area) of pressure-outlet 24.

 Reversed flow on 1676 faces (79.5% area) of pressure-outlet 25.
   499  3.8522e-01  2.0469e-03  2.0929e-03  2.1424e-03  2.6991e-03  7.8508e-03  0:00:02    1

 Reversed flow on 3605 faces (82.6% area) of pressure-outlet 24.

 Reversed flow on 1664 faces (79.0% area) of pressure-outlet 25.
   500  3.8185e-01  2.0376e-03  2.0885e-03  2.1235e-03  2.6078e-03  7.6565e-03  0:00:00    0

> ;/solve/set/time-step 0.01
;solve/set/data-sampling y 1 y y
;/solve/dual-time-iterate 5000 10

adjoint/                file/                   report/
define/                 mesh/                   solve/
display/                parallel/               surface/
exit                    plot/                   views/

> ; set save
;no .h5 format

adjoint/                file/                   report/
define/                 mesh/                   solve/
display/                parallel/               surface/
exit                    plot/                   views/

> /file/cff-files? n

> ;/file/autosave/root-name "Me_317"
/file/write-case-data "E:\LGF\Sim\task\0826_1\P_85\FluentData_M100_-3800_85.cas"
Writing "E:\LGF\Sim\task\0826_1\P_85\FluentData_M100_-3800_85.cas"...

    6990 mixed cells, zone 15, binary.
  565192 mixed cells, zone 16, binary.
  128494 mixed cells, zone 17, binary.
   99631 mixed cells, zone 18, binary.
  112217 mixed cells, zone 19, binary.
    6990 cell partition ids, zone 15, 100 partitions, binary.
  565192 cell partition ids, zone 16, 100 partitions, binary.
  128494 cell partition ids, zone 17, 100 partitions, binary.
   99631 cell partition ids, zone 18, 100 partitions, binary.
  112217 cell partition ids, zone 19, 100 partitions, binary.
    3768 mixed wall faces, zone  1, binary.
   34998 triangular wall faces, zone  2, binary.
    6023 triangular wall faces, zone  3, binary.
   11483 triangular wall faces, zone  4, binary.
    5640 triangular wall faces, zone  5, binary.
    2602 triangular interior faces, zone  6, binary.
     310 quadrilateral interior faces, zone  7, binary.
    2662 mixed interior faces, zone  8, binary.
    2776 mixed interior faces, zone  9, binary.
   18821 mixed interior faces, zone 10, binary.
 1189685 mixed interior faces, zone 11, binary.
  263371 mixed interior faces, zone 12, binary.
  203749 mixed interior faces, zone 13, binary.
  217848 triangular interior faces, zone 14, binary.
     637 triangular pressure-outlet faces, zone 22, binary.
     100 quadrilateral velocity-inlet faces, zone 23, binary.
    4385 mixed pressure-outlet faces, zone 24, binary.
    2646 mixed pressure-outlet faces, zone 25, binary.
    1906 triangular velocity-inlet faces, zone 26, binary.
    4293 triangular wall faces, zone 27, binary.
    4279 triangular wall faces, zone 28, binary.
  252813 nodes, binary.
  252813 node flags, binary.
Done.


Writing "E:\LGF\Sim\task\0826_1\P_85\FluentData_M100_-3800_85.dat"...

Done.



> ;/display/save-picture "E:\LGF\Sim\task\0826_1\P_85\FluentData_M100_-3800_85jpg"
/exit/c