
              Welcome to ANSYS Fluent 2020 R1

              Copyright 1987-2020 ANSYS, Inc. All Rights Reserved.
              Unauthorized use, distribution or duplication is prohibited.
              This product is subject to U.S. laws governing export and re-export.
              For full Legal Notice, see documentation.

Build Time: Dec  2 2019 14:15:26 EST  Build Id: 10114  
 
Host spawning Node 0 on machine "DESKTOP-8RUTNJQ" (win64).
WARNING: No cached password or password provided.
         use '-pass' or '-cache' to provide password
Host 0 -- ip 192.168.161.95 -- ranks 0 - 99

 host | 0
======|======
    0 : SHM

 Prot -  All Intra-node communication is: SHM


-------------------------------------------------------------------------------
ID    Hostname         Core     O.S.         PID     Vendor        
-------------------------------------------------------------------------------
n99   DESKTOP-8RUTNJQ  100/128  Windows-x64  131832  AMD EPYC 7702 
n98   DESKTOP-8RUTNJQ  99/128   Windows-x64  131828  AMD EPYC 7702 
n97   DESKTOP-8RUTNJQ  98/128   Windows-x64  129992  AMD EPYC 7702 
n96   DESKTOP-8RUTNJQ  97/128   Windows-x64  131536  AMD EPYC 7702 
n95   DESKTOP-8RUTNJQ  96/128   Windows-x64  134800  AMD EPYC 7702 
n94   DESKTOP-8RUTNJQ  95/128   Windows-x64  118052  AMD EPYC 7702 
n93   DESKTOP-8RUTNJQ  94/128   Windows-x64  134880  AMD EPYC 7702 
n92   DESKTOP-8RUTNJQ  93/128   Windows-x64  133936  AMD EPYC 7702 
n91   DESKTOP-8RUTNJQ  92/128   Windows-x64  130688  AMD EPYC 7702 
n90   DESKTOP-8RUTNJQ  91/128   Windows-x64  130220  AMD EPYC 7702 
n89   DESKTOP-8RUTNJQ  90/128   Windows-x64  110980  AMD EPYC 7702 
n88   DESKTOP-8RUTNJQ  89/128   Windows-x64  116092  AMD EPYC 7702 
n87   DESKTOP-8RUTNJQ  88/128   Windows-x64  114376  AMD EPYC 7702 
n86   DESKTOP-8RUTNJQ  87/128   Windows-x64  110800  AMD EPYC 7702 
n85   DESKTOP-8RUTNJQ  86/128   Windows-x64  109332  AMD EPYC 7702 
n84   DESKTOP-8RUTNJQ  85/128   Windows-x64  112940  AMD EPYC 7702 
n83   DESKTOP-8RUTNJQ  84/128   Windows-x64  128612  AMD EPYC 7702 
n82   DESKTOP-8RUTNJQ  83/128   Windows-x64  129720  AMD EPYC 7702 
n81   DESKTOP-8RUTNJQ  82/128   Windows-x64  106428  AMD EPYC 7702 
n80   DESKTOP-8RUTNJQ  81/128   Windows-x64  132872  AMD EPYC 7702 
-------------------------------------------------------------------------------
ID    Hostname         Core     O.S.         PID     Vendor        
-------------------------------------------------------------------------------
n79   DESKTOP-8RUTNJQ  80/128   Windows-x64  134724  AMD EPYC 7702 
n78   DESKTOP-8RUTNJQ  79/128   Windows-x64  134628  AMD EPYC 7702 
n77   DESKTOP-8RUTNJQ  78/128   Windows-x64  126624  AMD EPYC 7702 
n76   DESKTOP-8RUTNJQ  77/128   Windows-x64  108652  AMD EPYC 7702 
n75   DESKTOP-8RUTNJQ  76/128   Windows-x64  130204  AMD EPYC 7702 
n74   DESKTOP-8RUTNJQ  75/128   Windows-x64  130500  AMD EPYC 7702 
n73   DESKTOP-8RUTNJQ  74/128   Windows-x64  130480  AMD EPYC 7702 
n72   DESKTOP-8RUTNJQ  73/128   Windows-x64  103436  AMD EPYC 7702 
n71   DESKTOP-8RUTNJQ  72/128   Windows-x64  127816  AMD EPYC 7702 
n70   DESKTOP-8RUTNJQ  71/128   Windows-x64  129560  AMD EPYC 7702 
n69   DESKTOP-8RUTNJQ  70/128   Windows-x64  125092  AMD EPYC 7702 
n68   DESKTOP-8RUTNJQ  69/128   Windows-x64  126708  AMD EPYC 7702 
n67   DESKTOP-8RUTNJQ  68/128   Windows-x64  130016  AMD EPYC 7702 
n66   DESKTOP-8RUTNJQ  67/128   Windows-x64  125004  AMD EPYC 7702 
n65   DESKTOP-8RUTNJQ  66/128   Windows-x64  130536  AMD EPYC 7702 
n64   DESKTOP-8RUTNJQ  65/128   Windows-x64  126456  AMD EPYC 7702 
n63   DESKTOP-8RUTNJQ  64/128   Windows-x64  129588  AMD EPYC 7702 
n62   DESKTOP-8RUTNJQ  63/128   Windows-x64  130836  AMD EPYC 7702 
n61   DESKTOP-8RUTNJQ  62/128   Windows-x64  128876  AMD EPYC 7702 
n60   DESKTOP-8RUTNJQ  61/128   Windows-x64  125188  AMD EPYC 7702 
-------------------------------------------------------------------------------
ID    Hostname         Core     O.S.         PID     Vendor        
-------------------------------------------------------------------------------
n59   DESKTOP-8RUTNJQ  60/128   Windows-x64  32852   AMD EPYC 7702 
n58   DESKTOP-8RUTNJQ  59/128   Windows-x64  129304  AMD EPYC 7702 
n57   DESKTOP-8RUTNJQ  58/128   Windows-x64  135024  AMD EPYC 7702 
n56   DESKTOP-8RUTNJQ  57/128   Windows-x64  73648   AMD EPYC 7702 
n55   DESKTOP-8RUTNJQ  56/128   Windows-x64  129920  AMD EPYC 7702 
n54   DESKTOP-8RUTNJQ  55/128   Windows-x64  119572  AMD EPYC 7702 
n53   DESKTOP-8RUTNJQ  54/128   Windows-x64  124972  AMD EPYC 7702 
n52   DESKTOP-8RUTNJQ  53/128   Windows-x64  130068  AMD EPYC 7702 
n51   DESKTOP-8RUTNJQ  52/128   Windows-x64  129340  AMD EPYC 7702 
n50   DESKTOP-8RUTNJQ  51/128   Windows-x64  129148  AMD EPYC 7702 
n49   DESKTOP-8RUTNJQ  50/128   Windows-x64  127716  AMD EPYC 7702 
n48   DESKTOP-8RUTNJQ  49/128   Windows-x64  131252  AMD EPYC 7702 
n47   DESKTOP-8RUTNJQ  48/128   Windows-x64  16848   AMD EPYC 7702 
n46   DESKTOP-8RUTNJQ  47/128   Windows-x64  131872  AMD EPYC 7702 
n45   DESKTOP-8RUTNJQ  46/128   Windows-x64  111452  AMD EPYC 7702 
n44   DESKTOP-8RUTNJQ  45/128   Windows-x64  132112  AMD EPYC 7702 
n43   DESKTOP-8RUTNJQ  44/128   Windows-x64  33896   AMD EPYC 7702 
n42   DESKTOP-8RUTNJQ  43/128   Windows-x64  126184  AMD EPYC 7702 
n41   DESKTOP-8RUTNJQ  42/128   Windows-x64  128656  AMD EPYC 7702 
n40   DESKTOP-8RUTNJQ  41/128   Windows-x64  131508  AMD EPYC 7702 
-------------------------------------------------------------------------------
ID    Hostname         Core     O.S.         PID     Vendor        
-------------------------------------------------------------------------------
n39   DESKTOP-8RUTNJQ  40/128   Windows-x64  127764  AMD EPYC 7702 
n38   DESKTOP-8RUTNJQ  39/128   Windows-x64  123968  AMD EPYC 7702 
n37   DESKTOP-8RUTNJQ  38/128   Windows-x64  125864  AMD EPYC 7702 
n36   DESKTOP-8RUTNJQ  37/128   Windows-x64  125764  AMD EPYC 7702 
n35   DESKTOP-8RUTNJQ  36/128   Windows-x64  131848  AMD EPYC 7702 
n34   DESKTOP-8RUTNJQ  35/128   Windows-x64  118732  AMD EPYC 7702 
n33   DESKTOP-8RUTNJQ  34/128   Windows-x64  129924  AMD EPYC 7702 
n32   DESKTOP-8RUTNJQ  33/128   Windows-x64  124904  AMD EPYC 7702 
n31   DESKTOP-8RUTNJQ  32/128   Windows-x64  130808  AMD EPYC 7702 
n30   DESKTOP-8RUTNJQ  31/128   Windows-x64  113896  AMD EPYC 7702 
n29   DESKTOP-8RUTNJQ  30/128   Windows-x64  129292  AMD EPYC 7702 
n28   DESKTOP-8RUTNJQ  29/128   Windows-x64  126620  AMD EPYC 7702 
n27   DESKTOP-8RUTNJQ  28/128   Windows-x64  127248  AMD EPYC 7702 
n26   DESKTOP-8RUTNJQ  27/128   Windows-x64  126452  AMD EPYC 7702 
n25   DESKTOP-8RUTNJQ  26/128   Windows-x64  129276  AMD EPYC 7702 
n24   DESKTOP-8RUTNJQ  25/128   Windows-x64  130872  AMD EPYC 7702 
n23   DESKTOP-8RUTNJQ  24/128   Windows-x64  111180  AMD EPYC 7702 
n22   DESKTOP-8RUTNJQ  23/128   Windows-x64  132196  AMD EPYC 7702 
n21   DESKTOP-8RUTNJQ  22/128   Windows-x64  131704  AMD EPYC 7702 
n20   DESKTOP-8RUTNJQ  21/128   Windows-x64  132600  AMD EPYC 7702 
-------------------------------------------------------------------------------
ID    Hostname         Core     O.S.         PID     Vendor        
-------------------------------------------------------------------------------
n19   DESKTOP-8RUTNJQ  20/128   Windows-x64  131248  AMD EPYC 7702 
n18   DESKTOP-8RUTNJQ  19/128   Windows-x64  130700  AMD EPYC 7702 
n17   DESKTOP-8RUTNJQ  18/128   Windows-x64  129776  AMD EPYC 7702 
n16   DESKTOP-8RUTNJQ  17/128   Windows-x64  128676  AMD EPYC 7702 
n15   DESKTOP-8RUTNJQ  16/128   Windows-x64  127772  AMD EPYC 7702 
n14   DESKTOP-8RUTNJQ  15/128   Windows-x64  127056  AMD EPYC 7702 
n13   DESKTOP-8RUTNJQ  14/128   Windows-x64  126312  AMD EPYC 7702 
n12   DESKTOP-8RUTNJQ  13/128   Windows-x64  125412  AMD EPYC 7702 
n11   DESKTOP-8RUTNJQ  12/128   Windows-x64  122716  AMD EPYC 7702 
n10   DESKTOP-8RUTNJQ  11/128   Windows-x64  119292  AMD EPYC 7702 
n9    DESKTOP-8RUTNJQ  10/128   Windows-x64  107700  AMD EPYC 7702 
n8    DESKTOP-8RUTNJQ  9/128    Windows-x64  101380  AMD EPYC 7702 
n7    DESKTOP-8RUTNJQ  8/128    Windows-x64  126636  AMD EPYC 7702 
n6    DESKTOP-8RUTNJQ  7/128    Windows-x64  125124  AMD EPYC 7702 
n5    DESKTOP-8RUTNJQ  6/128    Windows-x64  133124  AMD EPYC 7702 
n4    DESKTOP-8RUTNJQ  5/128    Windows-x64  129892  AMD EPYC 7702 
n3    DESKTOP-8RUTNJQ  4/128    Windows-x64  15704   AMD EPYC 7702 
n2    DESKTOP-8RUTNJQ  3/128    Windows-x64  129852  AMD EPYC 7702 
n1    DESKTOP-8RUTNJQ  2/128    Windows-x64  132280  AMD EPYC 7702 
n0*   DESKTOP-8RUTNJQ  1/128    Windows-x64  126680  AMD EPYC 7702 
host  DESKTOP-8RUTNJQ           Windows-x64  20968   AMD EPYC 7702 

MPI Option Selected: ibmmpi
Selected system interconnect: default
-------------------------------------------------------------------------------



Cleanup script file is E:\LGF\Sim\Script\\cleanup-fluent-DESKTOP-8RUTNJQ-128680.bat

Reading journal file E:\LGF\Sim\task\0826_1\P_85\J_M100_85_-2300.jou...

> ;Read case
/file/read-case E:\LGF\Sim\basic_Mesh\Model_100.msh

4: Affinity not set!

10: Affinity not set!

24: Affinity not set!

78: Affinity not set!

84: Affinity not set!

96: Affinity not set!

14: Affinity not set!

16: Affinity not set!

32: Affinity not set!

42: Affinity not set!

44: Affinity not set!

46: Affinity not set!

50: Affinity not set!

53: Affinity not set!

54: Affinity not set!

58: Affinity not set!

66: Affinity not set!

68: Affinity not set!

72: Affinity not set!

80: Affinity not set!

86: Affinity not set!

88: Affinity not set!

90: Affinity not set!

92: Affinity not set!

94: Affinity not set!

98: Affinity not set!

22: Affinity not set!

31: Affinity not set!

2: Affinity not set!

34: Affinity not set!

36: Affinity not set!

56: Affinity not set!

62: Affinity not set!

0: Affinity not set!

40: Affinity not set!

65: Affinity not set!

1: Affinity not set!

52: Affinity not set!

12: Affinity not set!

26: Affinity not set!

87: Affinity not set!

64: Affinity not set!

82: Affinity not set!

20: Affinity not set!

21: Affinity not set!

60: Affinity not set!

6: Affinity not set!

74: Affinity not set!

48: Affinity not set!

7: Affinity not set!

Reading "E:\LGF\Sim\basic_Mesh\Model_100.msh"...

Buffering for file scan...

  209972 nodes, binary.
   42841 nodes, binary.
    3768 mixed wall faces, zone  1, binary.
   34998 triangular wall faces, zone  2, binary.
    6023 triangular wall faces, zone  3, binary.
   11483 triangular wall faces, zone  4, binary.
    5640 triangular wall faces, zone  5, binary.
    2602 triangular interior faces, zone  6, binary.
     310 quadrilateral interior faces, zone  7, binary.
    2662 mixed interior faces, zone  8, binary.
    2776 mixed interior faces, zone  9, binary.
   18821 mixed interior faces, zone 10, binary.
 1189685 mixed interior faces, zone 11, binary.
  263371 mixed interior faces, zone 12, binary.
  203749 mixed interior faces, zone 13, binary.
  217848 triangular interior faces, zone 14, binary.
     637 triangular wall faces, zone 22, binary.
     100 quadrilateral wall faces, zone 23, binary.
    4385 mixed wall faces, zone 24, binary.
    2646 mixed wall faces, zone 25, binary.
    1906 triangular wall faces, zone 26, binary.
    4293 triangular wall faces, zone 27, binary.
    4279 triangular wall faces, zone 28, binary.
    6990 mixed cells, zone 15, binary.
  565192 mixed cells, zone 16, binary.
  128494 mixed cells, zone 17, binary.
   99631 mixed cells, zone 18, binary.
  112217 mixed cells, zone 19, binary.

Building...
     mesh
	auto partitioning mesh by Metis (fast),
	distributing mesh
		parts..................................................,
		faces..................................................,
		nodes..................................................,
		cells..................................................,
        bandwidth reduction using Reverse Cuthill-McKee: 9508/523 = 18.1797
     materials,
     interface,
     domains,
     zones,
	wall_tx_xi
	wall_xi_tx
	i2
	p2
	p1
	i1
	o1
	towparts-xi_zhui
	towparts-tc_tc
	towparts-tx_tx
	towparts-block_block
	towparts-xi_huan
	interior-towparts-xi_zhui
	interior-towparts-tc_tc
	interior-towparts-tx_tx
	interior-towparts-block_block
	interior-towparts-xi_huan
	interior-towparts-block_block-towparts-tc_tc
	interior-towparts-block_block-towparts-tx_tx
	interior-towparts-xi_huan-towparts-xi_zhui
	interior-towparts-block_block-towparts-xi_zhui
	wall-towparts-xi_zhui
	wall-towparts-tc_tc
	wall-towparts-tx_tx
	wall-towparts-block_block
	wall-towparts-xi_huan
     parallel,
Done.

> 
adjoint/                file/                   report/
define/                 mesh/                   solve/
display/                parallel/               surface/
exit                    plot/                   views/

> ; set save
;;/file/auto-save/data-frequency 2000
;;/file/auto-save/case-frequency each-time
;;/file/autosave/root-name "30du.msh.gz"

adjoint/                file/                   report/
define/                 mesh/                   solve/
display/                parallel/               surface/
exit                    plot/                   views/

> ;delete mesh interface
;/define/mesh-interface/delete contact_region

adjoint/                file/                   report/
define/                 mesh/                   solve/
display/                parallel/               surface/
exit                    plot/                   views/

> ;/define/operating-conditions/gravity/ y 0 -9.8 6

adjoint/                file/                   report/
define/                 mesh/                   solve/
display/                parallel/               surface/
exit                    plot/                   views/

> ;scale
;;/mesh/scale 0.125 0.125 0.125

adjoint/                file/                   report/
define/                 mesh/                   solve/
display/                parallel/               surface/
exit                    plot/                   views/

> ;general

adjoint/                file/                   report/
define/                 mesh/                   solve/
display/                parallel/               surface/
exit                    plot/                   views/

> /define/operating-conditions? invalid command [operating-conditions?]
y 0.0 -9.8 0.0

> 
adjoint/                file/                   report/
define/                 mesh/                   solve/
display/                parallel/               surface/
exit                    plot/                   views/

> /define/models steady? Steady solution model is already enabled.
y
invalid command [y]

> ;/define/models unsteady-1st-order? y

adjoint/                file/                   report/
define/                 mesh/                   solve/
display/                parallel/               surface/
exit                    plot/                   views/

> 
adjoint/                file/                   report/
define/                 mesh/                   solve/
display/                parallel/               surface/
exit                    plot/                   views/

> ;define viscous model

adjoint/                file/                   report/
define/                 mesh/                   solve/
display/                parallel/               surface/
exit                    plot/                   views/

> /define/models/viscous/ke-rng? y   ;;swirl?
/define/models/viscous/rng-swirl-model? yes

> 
adjoint/                file/                   report/
define/                 mesh/                   solve/
display/                parallel/               surface/
exit                    plot/                   views/

> 
adjoint/                file/                   report/
define/                 mesh/                   solve/
display/                parallel/               surface/
exit                    plot/                   views/

> ;/define/models/viscous/ke-rng-swirl-model? y
;/define/models/viscous/ke-rng/rng-swirl-model? y

adjoint/                file/                   report/
define/                 mesh/                   solve/
display/                parallel/               surface/
exit                    plot/                   views/

> 
adjoint/                file/                   report/
define/                 mesh/                   solve/
display/                parallel/               surface/
exit                    plot/                   views/

> ;/define/models/viscous/ke-realizable? y            

adjoint/                file/                   report/
define/                 mesh/                   solve/
display/                parallel/               surface/
exit                    plot/                   views/

> 
adjoint/                file/                   report/
define/                 mesh/                   solve/
display/                parallel/               surface/
exit                    plot/                   views/

> ; modify boundary-condition types

adjoint/                file/                   report/
define/                 mesh/                   solve/
display/                parallel/               surface/
exit                    plot/                   views/

> ;/define/boundary-conditions/zone-type contact_region-src wall
;/define/boundary-conditions/zone-type contact_region-trg wall
/define/boundary-conditions/zone-type i1 velocity-inlet

> /define/boundary-conditions/zone-type i2 velocity-inlet

> 
adjoint/                file/                   report/
define/                 mesh/                   solve/
display/                parallel/               surface/
exit                    plot/                   views/

> /define/boundary-conditions/zone-type o1 pressure-outlet

> /define/boundary-conditions/zone-type p1 pressure-outlet

> /define/boundary-conditions/zone-type p2 pressure-outlet

> 
adjoint/                file/                   report/
define/                 mesh/                   solve/
display/                parallel/               surface/
exit                    plot/                   views/

> ;set inlet boundary-conditions
/define/boundary-conditions/velocity-inlet (i2 i1)
i2  n n y y n 10 n 0 n n y 5 10

> /define/boundary-conditions/velocity-inlet (i2 i1)
i1  n n y y n 85 n 0 n n y 5 10

> /define/boundary-conditions/pressure-outlet (p2 p1 o1)
o1  y n -2300 n y n n y 5 10 y n n n

> /define/boundary-conditions/pressure-outlet (p2 p1 o1)
p1  y n 0 n y n n y 5 10 y n n n 

> /define/boundary-conditions/pressure-outlet (p2 p1 o1)
p2  y n 0 n y n n y 5 10 y n n n 

> 
adjoint/                file/                   report/
define/                 mesh/                   solve/
display/                parallel/               surface/
exit                    plot/                   views/

> ;;;;n y y n 0 y n 51.96 n 30 n 0 y n 1 n 1
;/define/boundary-conditions/copy-bc inlet front ()
;/define/boundary-conditions/wall lj y motion-bc-moving n n n n 11.11 1 0 0 n n 0 n 0.5

adjoint/                file/                   report/
define/                 mesh/                   solve/
display/                parallel/               surface/
exit                    plot/                   views/

> ; set solution controls
;/solve/set/p-v-coupling 21
;20: SIMPLE
;21: SIMPLEC
;22: PISO
;24: coupled
;/solve/set/under-relaxation pressure 0.5
;/solve/set/under-relaxation density 0.8
;/solve/set/under-relaxation body-force  0.8
;/solve/set/under-relaxation mom 0.5
;/solve/set/under-relaxation turb-viscosity 0.6
;/solve/set/under-relaxation k 0.6
;/solve/set/under-relaxation epsilon 0.6
;/solve/set/under-relaxation body-force 0.8 turb-viscosity 0.8 density 0.8
;/solve/set/discretization-scheme pressure 10 mom 1 k 1 epsilon 1

adjoint/                file/                   report/
define/                 mesh/                   solve/
display/                parallel/               surface/
exit                    plot/                   views/

> ;set pressure
;10:standard
;11:linear
;12:second order
;13:body force weighted
;14:presto!

adjoint/                file/                   report/
define/                 mesh/                   solve/
display/                parallel/               surface/
exit                    plot/                   views/

> ;set mom
;0:firdst order upwind
;1:second order upwind
;2:power law
;4:quick
;6:third-order muscl

adjoint/                file/                   report/
define/                 mesh/                   solve/
display/                parallel/               surface/
exit                    plot/                   views/

> ;set k
;0:firdst order upwind
;1:second order upwind
;2:power law
;4:quick
;6:third-order muscl

adjoint/                file/                   report/
define/                 mesh/                   solve/
display/                parallel/               surface/
exit                    plot/                   views/

> ;set epdst order upwind
;1:second order upwind
;2:power law
;4:silon
;0:firquick
;6:third-order muscl
;;;;;;;;;;;;;;;;;;;;;;;;;;;;;;;
;;;;;;;;;;;;;;;;;;;;;;;;;;;;;;set monitor point line surface
;;;;;;;;;;;;;;;;;;;;;;;;;;;;;;
/surface/point-surface/ cirPoint1 1.8 2 7

> /surface/point-surface/ cirPoint2 1.5 2 7

> /surface/point-surface/ cirPoint3 1 2 7

> /surface/point-surface/ cirPoint4 0 2 7

> /surface/point-surface/ cirPoint1_synYZ -1.8 2 7

> /surface/point-surface/ cirPoint2_synYZ -1.5 2 7

> /surface/point-surface/ cirPoint3_synYZ -1 2 7

> /surface/point-surface/ cirPoint1_synO -1.8 -2 7

> /surface/point-surface/ cirPoint2_synO -1.5 -2 7

> /surface/point-surface/ cirPoint3_synO -1 -2 7

> 
adjoint/                file/                   report/
define/                 mesh/                   solve/
display/                parallel/               surface/
exit                    plot/                   views/

> /surface/line-surface/ line_1 0 0 2 0 0 7

> 
adjoint/                file/                   report/
define/                 mesh/                   solve/
display/                parallel/               surface/
exit                    plot/                   views/

> /surface/line-surface/ line_2 1 2 2 1 2 7

> /surface/line-surface/ line_2_synYZ -1 2 2 -1 2 7

> 
adjoint/                file/                   report/
define/                 mesh/                   solve/
display/                parallel/               surface/
exit                    plot/                   views/

> /surface/line-surface/ line_3 1.5 2 2 1.5 2 7

> /surface/line-surface/ line_3_synYZ -1.5 2 2 -1.5 2 7

> 
adjoint/                file/                   report/
define/                 mesh/                   solve/
display/                parallel/               surface/
exit                    plot/                   views/

> 
adjoint/                file/                   report/
define/                 mesh/                   solve/
display/                parallel/               surface/
exit                    plot/                   views/

> 
adjoint/                file/                   report/
define/                 mesh/                   solve/
display/                parallel/               surface/
exit                    plot/                   views/

> 
adjoint/                file/                   report/
define/                 mesh/                   solve/
display/                parallel/               surface/
exit                    plot/                   views/

> 
adjoint/                file/                   report/
define/                 mesh/                   solve/
display/                parallel/               surface/
exit                    plot/                   views/

> /surface/plane-slice/ YuanPian_0_0_3 0 0 1 3

> /surface/plane-slice/ YuanPian_0_0_4 0 0 1 4

> /surface/plane-slice/ YuanPian_0_0_5 0 0 1 5

> /surface/plane-slice/ YuanPian_0_0_6 0 0 1 6

> /surface/plane-slice/ YuanPian_0_0_7 0 0 1 7

> 
adjoint/                file/                   report/
define/                 mesh/                   solve/
display/                parallel/               surface/
exit                    plot/                   views/

> /surface/transform-surface/ 10 ()
Center Of Rotation
 0 0 0 
Angle of Rotation
0 0 0 
Translation Distance
0 0 0 0 xiKou 

> 
adjoint/                file/                   report/
define/                 mesh/                   solve/
display/                parallel/               surface/
exit                    plot/                   views/

> 
adjoint/                file/                   report/
define/                 mesh/                   solve/
display/                parallel/               surface/
exit                    plot/                   views/

> 
adjoint/                file/                   report/
define/                 mesh/                   solve/
display/                parallel/               surface/
exit                    plot/                   views/

> 
adjoint/                file/                   report/
define/                 mesh/                   solve/
display/                parallel/               surface/
exit                    plot/                   views/

> ;/solve/monitors/surface/set-monitor miao_V_huan_2 ? velocity-magnitude miao31 miao32 miao33 miao34 miao35 miao36   n n y miao_V_huan_2 100

adjoint/                file/                   report/
define/                 mesh/                   solve/
display/                parallel/               surface/
exit                    plot/                   views/

> 
adjoint/                file/                   report/
define/                 mesh/                   solve/
display/                parallel/               surface/
exit                    plot/                   views/

> /solve/monitors/surface/set-monitor cirPoint1  "Sum" velocity-magnitude cirPoint1 () n n y E:\LGF\Sim\task\0826_1\P_85\txtData\cirPoint1_-2300.txt 100
Information: Converting monitor cirpoint1 to report definition.

> /solve/monitors/surface/set-monitor cirPoint2  "Sum" velocity-magnitude cirPoint2 () n n y E:\LGF\Sim\task\0826_1\P_85\txtData\cirPoint2_-2300.txt 100
Information: Converting monitor cirpoint2 to report definition.

> /solve/monitors/surface/set-monitor cirPoint3  "Sum" velocity-magnitude cirPoint3 () n n y E:\LGF\Sim\task\0826_1\P_85\txtData\cirPoint3_-2300.txt 100
Information: Converting monitor cirpoint3 to report definition.

> /solve/monitors/surface/set-monitor cirPoint1-2  "Sum" velocity-magnitude cirPoint1 cirPoint2 () n n y E:\LGF\Sim\task\0826_1\P_85\txtData\cirPoint1-2_-2300.txt 100
Information: Converting monitor cirpoint1-2 to report definition.

> 
adjoint/                file/                   report/
define/                 mesh/                   solve/
display/                parallel/               surface/
exit                    plot/                   views/

> /solve/monitors/surface/set-monitor line_1   "Facet Average" velocity-magnitude line_1 () n n y E:\LGF\Sim\task\0826_1\P_85\txtData\line_1_-2300.txt 100
Information: Converting monitor line_1 to report definition.

> /solve/monitors/surface/set-monitor line_2   "Facet Average" velocity-magnitude line_2 () n n y E:\LGF\Sim\task\0826_1\P_85\txtData\line_2_-2300.txt 100
Information: Converting monitor line_2 to report definition.

> 
adjoint/                file/                   report/
define/                 mesh/                   solve/
display/                parallel/               surface/
exit                    plot/                   views/

> /solve/monitors/surface/set-monitor YuanPian_0_0_5   "Facet Average" velocity-magnitude YuanPian_0_0_5 () n n y E:\LGF\Sim\task\0826_1\P_85\txtData\YuanPian_0_0_5_-2300.txt 100
Information: Converting monitor yuanpian_0_0_5 to report definition.

> 
adjoint/                file/                   report/
define/                 mesh/                   solve/
display/                parallel/               surface/
exit                    plot/                   views/

> /solve/monitors/surface/set-monitor xiKou   "Facet Average" velocity-magnitude xiKou () n n y E:\LGF\Sim\task\0826_1\P_85\txtData\xiKou_-2300.txt 100
Information: Converting monitor xikou to report definition.

> 
adjoint/                file/                   report/
define/                 mesh/                   solve/
display/                parallel/               surface/
exit                    plot/                   views/

> ;/solve/monitors/surface/set-monitor miao_V_huan_4  "Sum" velocity-magnitude miao37 () n n y E:\LGF\Sim\task\0826_1\P_85\txtData\miao_V_huan_4_-2300.txt 100

adjoint/                file/                   report/
define/                 mesh/                   solve/
display/                parallel/               surface/
exit                    plot/                   views/

> ;set monitor residuals
/solve/monitors/residual/convergence-criteria 0.000001 0.000001 0.000001 0.000001 0.000001 0.000001

> 
adjoint/                file/                   report/
define/                 mesh/                   solve/
display/                parallel/               surface/
exit                    plot/                   views/

> ;set force monitors
;compile C
;/define/user-defined/compiled-functions/compile libudf yes FandMmonitor.c "" "" 
; load C
;/define/user-defined/compiled-functions/load libudf
;;    set hook
;/define/user-defined/function-hooks/execute-at-end "force_and_moment_print::libudf" "" 

adjoint/                file/                   report/
define/                 mesh/                   solve/
display/                parallel/               surface/
exit                    plot/                   views/

> ;/solve/monitors/force/set-drag-monitor cx y che1 zxj1 zxj2 che2 zxj3 zxj4 che3 zxj5 zxj6 () n y "cx-CRH380A" n y 1 0 0
;/solve/monitors/force/set-drag-monitor cy y che1 zxj1 zxj2 che2 zxj3 zxj4 che3 zxj5 zxj6 () n y "cy-1D-30" n y 0 1 0
;/solve/monitors/force/set-drag-monitor cz y che1 zxj1 zxj2 che2 zxj3 zxj4 che3 zxj5 zxj6 () n y "cz-CRH380A" n y 0 0 1

adjoint/                file/                   report/
define/                 mesh/                   solve/
display/                parallel/               surface/
exit                    plot/                   views/

> ;/solve/monitors/force/set-moment-monitor mx y che1 zxj1 zxj2 fd1 che2 zxj3 zxj4 fd2 che3 zxj5 zxj6 () n y "mx-1D-30" n y 0 0 0 1 0 0
;/solve/monitors/force/set-moment-monitor my y che1 zxj1 zxj2 fd1 che2 zxj3 zxj4 fd2 che3 zxj5 zxj6 () n y "my-1D-30" n y 0 0 0 0 1 0
;/solve/monitors/force/set-moment-monitor mz y che1 zxj1 zxj2 fd1 che2 zxj3 zxj4 fd2 che3 zxj5 zxj6 () n y "mz-1D-30" n y 0 0 0 0 0 1

adjoint/                file/                   report/
define/                 mesh/                   solve/
display/                parallel/               surface/
exit                    plot/                   views/

> 
adjoint/                file/                   report/
define/                 mesh/                   solve/
display/                parallel/               surface/
exit                    plot/                   views/

> ;init solve set
/solve/initialize/reference-frame Current Reference Frame : Relative to Cell Zoneabsolute

> /solve/initialize/initialize-flow

> ;solve/set/time-step 0.00005
/solve/iterate 500

  iter  continuity  x-velocity  y-velocity  z-velocity           k     epsilon     time/iter
     1  1.0000e+00  1.0570e+04  9.2552e+02  8.0537e+03  7.3895e-01  4.1189e+02  0:08:19  499

 Reversed flow on 4385 faces (100.0% area) of pressure-outlet 24.
     2  6.3258e-01  1.6319e-02  1.0451e-02  2.4014e-02  1.8545e-01  5.5759e-01  0:09:58  498

 Reversed flow on 8 faces (1.3% area) of pressure-outlet 22.

 Reversed flow on 214 faces (9.8% area) of pressure-outlet 25.
     3  6.3436e-01  2.9810e-02  2.5564e-02  1.8471e-02  1.5759e-01  5.3233e-01  0:09:37  497

 Reversed flow on 7 faces (1.3% area) of pressure-outlet 22.

 Reversed flow on 1604 faces (41.6% area) of pressure-outlet 24.

 Reversed flow on 893 faces (41.3% area) of pressure-outlet 25.
     4  5.9686e-01  1.4885e-02  1.3574e-02  1.3133e-02  6.1870e-02  4.5023e-01  0:10:59  496

 Reversed flow on 6 faces (1.2% area) of pressure-outlet 22.

 Reversed flow on 241 faces (6.9% area) of pressure-outlet 24.

 Reversed flow on 946 faces (45.4% area) of pressure-outlet 25.
     5  5.5820e-01  1.2519e-02  1.1172e-02  7.1481e-03  3.2067e-02  3.5377e-01  0:12:04  495

 turbulent viscosity limited to viscosity ratio of 1.000000e+05 in 16 cells 

 Reversed flow on 4 faces (0.8% area) of pressure-outlet 22.

 Reversed flow on 158 faces (4.5% area) of pressure-outlet 24.

 Reversed flow on 1220 faces (57.0% area) of pressure-outlet 25.
     6  5.4968e-01  1.0015e-02  8.8449e-03  6.5965e-03  1.9988e-02  2.1018e-01  0:12:56  494

 turbulent viscosity limited to viscosity ratio of 1.000000e+05 in 2324 cells 

 Reversed flow on 107 faces (3.1% area) of pressure-outlet 24.

 Reversed flow on 1264 faces (60.8% area) of pressure-outlet 25.
     7  5.1726e-01  7.9075e-03  7.0881e-03  4.7068e-03  2.0124e-02  8.3444e-02  0:11:58  493

 turbulent viscosity limited to viscosity ratio of 1.000000e+05 in 7067 cells 

 Reversed flow on 97 faces (2.8% area) of pressure-outlet 24.

 Reversed flow on 1407 faces (67.6% area) of pressure-outlet 25.
     8  5.0665e-01  6.7079e-03  6.4280e-03  4.6787e-03  2.3850e-02  1.2827e-01  0:12:50  492

 turbulent viscosity limited to viscosity ratio of 1.000000e+05 in 14939 cells 

 Reversed flow on 82 faces (2.4% area) of pressure-outlet 24.

 Reversed flow on 1438 faces (69.0% area) of pressure-outlet 25.
     9  4.9195e-01  5.8229e-03  5.5772e-03  4.3057e-03  2.3715e-02  1.1617e-01  0:13:31  491

 turbulent viscosity limited to viscosity ratio of 1.000000e+05 in 26522 cells 

 Reversed flow on 50 faces (1.5% area) of pressure-outlet 24.

 Reversed flow on 1472 faces (70.5% area) of pressure-outlet 25.
    10  4.7584e-01  5.1086e-03  4.9635e-03  4.3042e-03  1.9898e-02  8.3294e-02  0:14:04  490

 turbulent viscosity limited to viscosity ratio of 1.000000e+05 in 15488 cells 

 Reversed flow on 25 faces (0.7% area) of pressure-outlet 24.

 Reversed flow on 1461 faces (70.1% area) of pressure-outlet 25.
    11  4.6652e-01  4.6575e-03  4.4236e-03  4.1511e-03  1.4805e-02  5.4960e-02  0:14:29  489

 turbulent viscosity limited to viscosity ratio of 1.000000e+05 in 12796 cells 

 Reversed flow on 185 faces (2.8% area) of pressure-outlet 24.

 Reversed flow on 1468 faces (70.5% area) of pressure-outlet 25.

  iter  continuity  x-velocity  y-velocity  z-velocity           k     epsilon     time/iter
    12  4.6289e-01  4.4546e-03  4.0418e-03  4.1178e-03  1.1896e-02  3.4640e-02  0:14:49  488

 turbulent viscosity limited to viscosity ratio of 1.000000e+05 in 852 cells 

 Reversed flow on 1281 faces (27.2% area) of pressure-outlet 24.

 Reversed flow on 1478 faces (71.0% area) of pressure-outlet 25.
    13  4.6147e-01  4.2012e-03  3.8198e-03  4.0632e-03  1.0904e-02  2.6155e-02  0:13:27  487

 turbulent viscosity limited to viscosity ratio of 1.000000e+05 in 139 cells 

 Reversed flow on 2204 faces (49.3% area) of pressure-outlet 24.

 Reversed flow on 1507 faces (72.2% area) of pressure-outlet 25.
    14  4.5391e-01  3.8091e-03  3.5241e-03  3.8830e-03  9.8062e-03  2.5149e-02  0:15:36  486

 turbulent viscosity limited to viscosity ratio of 1.000000e+05 in 486 cells 

 Reversed flow on 2662 faces (60.2% area) of pressure-outlet 24.

 Reversed flow on 1498 faces (71.8% area) of pressure-outlet 25.
    15  4.5155e-01  3.4663e-03  3.2450e-03  3.6904e-03  9.5328e-03  2.4581e-02  0:15:41  485

 turbulent viscosity limited to viscosity ratio of 1.000000e+05 in 608 cells 

 Reversed flow on 2794 faces (63.9% area) of pressure-outlet 24.

 Reversed flow on 1487 faces (71.3% area) of pressure-outlet 25.
    16  4.5253e-01  3.2216e-03  3.0493e-03  3.5476e-03  9.4361e-03  2.4051e-02  0:17:22  484

 turbulent viscosity limited to viscosity ratio of 1.000000e+05 in 1207 cells 

 Reversed flow on 3053 faces (69.7% area) of pressure-outlet 24.

 Reversed flow on 1457 faces (70.0% area) of pressure-outlet 25.
    17  4.5561e-01  3.0359e-03  2.8959e-03  3.4144e-03  9.2353e-03  2.3371e-02  0:15:28  483

 turbulent viscosity limited to viscosity ratio of 1.000000e+05 in 236 cells 

 Reversed flow on 3717 faces (84.1% area) of pressure-outlet 24.

 Reversed flow on 1448 faces (69.5% area) of pressure-outlet 25.
    18  4.5585e-01  2.8650e-03  2.7431e-03  3.2844e-03  8.8564e-03  2.3147e-02  0:17:10  482

 turbulent viscosity limited to viscosity ratio of 1.000000e+05 in 18 cells 

 Reversed flow on 4172 faces (95.2% area) of pressure-outlet 24.

 Reversed flow on 1442 faces (69.2% area) of pressure-outlet 25.
    19  4.5241e-01  2.6951e-03  2.5830e-03  3.1489e-03  8.3347e-03  2.3230e-02  0:18:31  481

 turbulent viscosity limited to viscosity ratio of 1.000000e+05 in 60 cells 

 Reversed flow on 4295 faces (98.1% area) of pressure-outlet 24.

 Reversed flow on 1432 faces (68.7% area) of pressure-outlet 25.
    20  4.4432e-01  2.5366e-03  2.4172e-03  3.0037e-03  7.5828e-03  2.2571e-02  0:17:59  480

 turbulent viscosity limited to viscosity ratio of 1.000000e+05 in 4 cells 

 Reversed flow on 4095 faces (94.5% area) of pressure-outlet 24.

 Reversed flow on 1460 faces (70.0% area) of pressure-outlet 25.
    21  4.3361e-01  2.3958e-03  2.2788e-03  2.8497e-03  6.8981e-03  2.1445e-02  0:17:33  479

 Reversed flow on 3667 faces (84.3% area) of pressure-outlet 24.

 Reversed flow on 1469 faces (70.4% area) of pressure-outlet 25.
    22  4.2088e-01  2.2850e-03  2.1573e-03  2.7195e-03  6.3816e-03  2.0662e-02  0:17:12  478

 Reversed flow on 3440 faces (79.0% area) of pressure-outlet 24.

 Reversed flow on 1483 faces (71.0% area) of pressure-outlet 25.

  iter  continuity  x-velocity  y-velocity  z-velocity           k     epsilon     time/iter
    23  4.0964e-01  2.2064e-03  2.0816e-03  2.6150e-03  5.9543e-03  1.9703e-02  0:16:55  477

 Reversed flow on 3286 faces (75.4% area) of pressure-outlet 24.

 Reversed flow on 1482 faces (71.0% area) of pressure-outlet 25.
    24  4.0326e-01  2.1688e-03  2.0388e-03  2.5447e-03  5.5031e-03  1.7995e-02  0:16:40  476

 turbulent viscosity limited to viscosity ratio of 1.000000e+05 in 9 cells 

 Reversed flow on 3232 faces (74.1% area) of pressure-outlet 24.

 Reversed flow on 1484 faces (71.1% area) of pressure-outlet 25.
    25  3.9498e-01  2.0995e-03  1.9808e-03  2.4392e-03  5.2571e-03  1.6255e-02  0:16:29  475

 turbulent viscosity limited to viscosity ratio of 1.000000e+05 in 84 cells 

 Reversed flow on 3304 faces (75.6% area) of pressure-outlet 24.

 Reversed flow on 1497 faces (71.7% area) of pressure-outlet 25.
    26  3.9188e-01  2.0784e-03  1.9685e-03  2.3940e-03  5.3626e-03  1.5372e-02  0:17:54  474

 turbulent viscosity limited to viscosity ratio of 1.000000e+05 in 177 cells 

 Reversed flow on 3302 faces (76.1% area) of pressure-outlet 24.

 Reversed flow on 1505 faces (72.2% area) of pressure-outlet 25.
    27  3.9979e-01  2.1259e-03  2.0302e-03  2.4158e-03  5.3151e-03  1.4037e-02  0:15:52  473

 turbulent viscosity limited to viscosity ratio of 1.000000e+05 in 118 cells 

 Reversed flow on 2987 faces (69.3% area) of pressure-outlet 24.

 Reversed flow on 1506 faces (72.2% area) of pressure-outlet 25.
    28  4.0879e-01  2.1367e-03  2.0582e-03  2.4079e-03  5.2459e-03  1.2992e-02  0:15:49  472

 turbulent viscosity limited to viscosity ratio of 1.000000e+05 in 12 cells 

 Reversed flow on 2921 faces (68.4% area) of pressure-outlet 24.

 Reversed flow on 1511 faces (72.5% area) of pressure-outlet 25.
    29  4.1636e-01  2.1297e-03  2.0597e-03  2.3921e-03  5.0970e-03  1.2035e-02  0:15:46  471

 Reversed flow on 2883 faces (67.8% area) of pressure-outlet 24.

 Reversed flow on 1515 faces (72.6% area) of pressure-outlet 25.
    30  4.2110e-01  2.1147e-03  2.0452e-03  2.3953e-03  5.0187e-03  1.1358e-02  0:17:17  470

 Reversed flow on 2881 faces (67.8% area) of pressure-outlet 24.

 Reversed flow on 1514 faces (72.6% area) of pressure-outlet 25.
    31  4.2715e-01  2.0986e-03  2.0257e-03  2.4173e-03  5.0399e-03  1.0859e-02  0:16:55  469

 turbulent viscosity limited to viscosity ratio of 1.000000e+05 in 1 cells 

 Reversed flow on 2743 faces (64.8% area) of pressure-outlet 24.

 Reversed flow on 1522 faces (72.9% area) of pressure-outlet 25.
    32  4.3494e-01  2.0870e-03  2.0121e-03  2.4406e-03  5.1103e-03  1.0572e-02  0:18:11  468

 Reversed flow on 2704 faces (63.8% area) of pressure-outlet 24.

 Reversed flow on 1518 faces (72.7% area) of pressure-outlet 25.
    33  4.4221e-01  2.0610e-03  2.0048e-03  2.4484e-03  4.9744e-03  1.0204e-02  0:17:38  467

 Reversed flow on 2757 faces (65.0% area) of pressure-outlet 24.

 Reversed flow on 1513 faces (72.5% area) of pressure-outlet 25.

  iter  continuity  x-velocity  y-velocity  z-velocity           k     epsilon     time/iter
    34  4.4441e-01  2.0010e-03  1.9826e-03  2.4034e-03  4.8976e-03  9.9339e-03  0:15:38  466

 Reversed flow on 2883 faces (68.3% area) of pressure-outlet 24.

 Reversed flow on 1507 faces (72.2% area) of pressure-outlet 25.
    35  4.4729e-01  1.9719e-03  1.9740e-03  2.3891e-03  5.0680e-03  1.0376e-02  0:15:35  465

 turbulent viscosity limited to viscosity ratio of 1.000000e+05 in 1 cells 

 Reversed flow on 3013 faces (71.3% area) of pressure-outlet 24.

 Reversed flow on 1493 faces (71.5% area) of pressure-outlet 25.
    36  4.5628e-01  1.9841e-03  1.9976e-03  2.4337e-03  5.1508e-03  1.0348e-02  0:15:32  464

 turbulent viscosity limited to viscosity ratio of 1.000000e+05 in 8 cells 

 Reversed flow on 3136 faces (73.9% area) of pressure-outlet 24.

 Reversed flow on 1491 faces (71.4% area) of pressure-outlet 25.
    37  4.6622e-01  2.0020e-03  1.9971e-03  2.4372e-03  5.0625e-03  1.0016e-02  0:15:29  463

 turbulent viscosity limited to viscosity ratio of 1.000000e+05 in 6 cells 

 Reversed flow on 3227 faces (75.8% area) of pressure-outlet 24.

 Reversed flow on 1486 faces (71.2% area) of pressure-outlet 25.
    38  4.6832e-01  1.9759e-03  1.9542e-03  2.3852e-03  4.8811e-03  9.4094e-03  0:15:26  462

 turbulent viscosity limited to viscosity ratio of 1.000000e+05 in 1 cells 

 Reversed flow on 3322 faces (77.8% area) of pressure-outlet 24.

 Reversed flow on 1482 faces (71.0% area) of pressure-outlet 25.
    39  4.6741e-01  1.9631e-03  1.9150e-03  2.3652e-03  4.7500e-03  9.2124e-03  0:13:52  461

 turbulent viscosity limited to viscosity ratio of 1.000000e+05 in 2 cells 

 Reversed flow on 3351 faces (79.0% area) of pressure-outlet 24.

 Reversed flow on 1481 faces (71.0% area) of pressure-outlet 25.
    40  4.6710e-01  1.9619e-03  1.9059e-03  2.3744e-03  4.6258e-03  8.7473e-03  0:14:08  460

 turbulent viscosity limited to viscosity ratio of 1.000000e+05 in 10 cells 

 Reversed flow on 3374 faces (80.5% area) of pressure-outlet 24.

 Reversed flow on 1480 faces (70.9% area) of pressure-outlet 25.
    41  4.7019e-01  1.9859e-03  1.9120e-03  2.4183e-03  4.8655e-03  9.1640e-03  0:15:52  459

 turbulent viscosity limited to viscosity ratio of 1.000000e+05 in 9 cells 

 Reversed flow on 3421 faces (82.2% area) of pressure-outlet 24.

 Reversed flow on 1478 faces (70.8% area) of pressure-outlet 25.
    42  4.8203e-01  2.0691e-03  1.9716e-03  2.5299e-03  4.9623e-03  9.4142e-03  0:14:12  458

 turbulent viscosity limited to viscosity ratio of 1.000000e+05 in 2 cells 

 Reversed flow on 3463 faces (83.3% area) of pressure-outlet 24.

 Reversed flow on 1483 faces (71.0% area) of pressure-outlet 25.
    43  4.9938e-01  2.1453e-03  2.0316e-03  2.6131e-03  4.9999e-03  1.0162e-02  0:14:23  457

 turbulent viscosity limited to viscosity ratio of 1.000000e+05 in 58 cells 

 Reversed flow on 3543 faces (84.9% area) of pressure-outlet 24.

 Reversed flow on 1480 faces (70.9% area) of pressure-outlet 25.
    44  5.1593e-01  2.1985e-03  2.0966e-03  2.6634e-03  4.9590e-03  1.0444e-02  0:13:00  456

 turbulent viscosity limited to viscosity ratio of 1.000000e+05 in 178 cells 

 Reversed flow on 3624 faces (86.4% area) of pressure-outlet 24.

 Reversed flow on 1479 faces (70.8% area) of pressure-outlet 25.

  iter  continuity  x-velocity  y-velocity  z-velocity           k     epsilon     time/iter
    45  5.2922e-01  2.2427e-03  2.1582e-03  2.6939e-03  5.0082e-03  1.0799e-02  0:13:25  455

 turbulent viscosity limited to viscosity ratio of 1.000000e+05 in 112 cells 

 Reversed flow on 3255 faces (79.2% area) of pressure-outlet 24.

 Reversed flow on 1480 faces (70.9% area) of pressure-outlet 25.
    46  5.3972e-01  2.2914e-03  2.2078e-03  2.7176e-03  5.0361e-03  1.0762e-02  0:13:44  454

 turbulent viscosity limited to viscosity ratio of 1.000000e+05 in 26 cells 

 Reversed flow on 3121 faces (76.5% area) of pressure-outlet 24.

 Reversed flow on 1479 faces (70.8% area) of pressure-outlet 25.
    47  5.4688e-01  2.3322e-03  2.2388e-03  2.7448e-03  5.0280e-03  1.0734e-02  0:13:59  453

 turbulent viscosity limited to viscosity ratio of 1.000000e+05 in 1 cells 

 Reversed flow on 3177 faces (76.6% area) of pressure-outlet 24.

 Reversed flow on 1476 faces (70.7% area) of pressure-outlet 25.
    48  5.5166e-01  2.3584e-03  2.2615e-03  2.7632e-03  4.9781e-03  1.0507e-02  0:14:10  452

 Reversed flow on 3380 faces (79.9% area) of pressure-outlet 24.

 Reversed flow on 1469 faces (70.3% area) of pressure-outlet 25.
    49  5.5611e-01  2.3748e-03  2.2997e-03  2.7900e-03  5.0149e-03  1.0378e-02  0:14:19  451

 turbulent viscosity limited to viscosity ratio of 1.000000e+05 in 1 cells 

 Reversed flow on 3536 faces (83.9% area) of pressure-outlet 24.

 Reversed flow on 1462 faces (70.0% area) of pressure-outlet 25.
    50  5.6148e-01  2.3851e-03  2.3508e-03  2.8374e-03  5.0127e-03  1.0320e-02  0:12:56  450

 turbulent viscosity limited to viscosity ratio of 1.000000e+05 in 7 cells 

 Reversed flow on 3672 faces (87.1% area) of pressure-outlet 24.

 Reversed flow on 1461 faces (70.0% area) of pressure-outlet 25.
    51  5.6850e-01  2.3911e-03  2.3964e-03  2.9005e-03  4.9704e-03  1.0091e-02  0:13:19  449

 turbulent viscosity limited to viscosity ratio of 1.000000e+05 in 5 cells 

 Reversed flow on 3735 faces (88.9% area) of pressure-outlet 24.

 Reversed flow on 1455 faces (69.7% area) of pressure-outlet 25.
    52  5.7611e-01  2.3901e-03  2.4101e-03  2.9477e-03  4.9671e-03  1.0230e-02  0:13:37  448

 Reversed flow on 3756 faces (90.0% area) of pressure-outlet 24.

 Reversed flow on 1452 faces (69.6% area) of pressure-outlet 25.
    53  5.8369e-01  2.3915e-03  2.3975e-03  2.9828e-03  4.8258e-03  1.0088e-02  0:15:20  447

 Reversed flow on 3701 faces (89.5% area) of pressure-outlet 24.

 Reversed flow on 1450 faces (69.5% area) of pressure-outlet 25.
    54  5.8980e-01  2.4066e-03  2.3838e-03  3.0149e-03  4.7223e-03  1.0126e-02  0:15:13  446

 Reversed flow on 3637 faces (88.8% area) of pressure-outlet 24.

 Reversed flow on 1452 faces (69.5% area) of pressure-outlet 25.
    55  5.9559e-01  2.4373e-03  2.3929e-03  3.0657e-03  4.6989e-03  9.8354e-03  0:15:07  445

 Reversed flow on 3583 faces (88.5% area) of pressure-outlet 24.

 Reversed flow on 1452 faces (69.5% area) of pressure-outlet 25.

  iter  continuity  x-velocity  y-velocity  z-velocity           k     epsilon     time/iter
    56  6.0203e-01  2.4817e-03  2.4108e-03  3.1252e-03  4.7642e-03  9.7709e-03  0:15:01  444

 turbulent viscosity limited to viscosity ratio of 1.000000e+05 in 2 cells 

 Reversed flow on 3410 faces (86.1% area) of pressure-outlet 24.

 Reversed flow on 1456 faces (69.7% area) of pressure-outlet 25.
    57  6.0786e-01  2.5250e-03  2.4389e-03  3.1794e-03  4.7869e-03  9.4855e-03  0:14:57  443

 turbulent viscosity limited to viscosity ratio of 1.000000e+05 in 109 cells 

 Reversed flow on 3258 faces (83.4% area) of pressure-outlet 24.

 Reversed flow on 1456 faces (69.7% area) of pressure-outlet 25.
    58  6.1223e-01  2.5591e-03  2.4688e-03  3.2287e-03  4.9441e-03  9.5701e-03  0:14:53  442

 turbulent viscosity limited to viscosity ratio of 1.000000e+05 in 137 cells 

 Reversed flow on 3228 faces (82.3% area) of pressure-outlet 24.

 Reversed flow on 1456 faces (69.7% area) of pressure-outlet 25.
    59  6.1590e-01  2.5954e-03  2.5031e-03  3.2687e-03  5.3693e-03  9.6415e-03  0:16:17  441

 turbulent viscosity limited to viscosity ratio of 1.000000e+05 in 34 cells 

 Reversed flow on 3228 faces (81.8% area) of pressure-outlet 24.

 Reversed flow on 1458 faces (69.9% area) of pressure-outlet 25.
    60  6.2040e-01  2.6348e-03  2.5319e-03  3.2936e-03  5.7606e-03  9.8933e-03  0:17:24  440

 Reversed flow on 3331 faces (83.5% area) of pressure-outlet 24.

 Reversed flow on 1450 faces (69.5% area) of pressure-outlet 25.
    61  6.2485e-01  2.6654e-03  2.5410e-03  3.3004e-03  5.1975e-03  1.0147e-02  0:16:49  439

 Reversed flow on 3408 faces (84.9% area) of pressure-outlet 24.

 Reversed flow on 1453 faces (69.6% area) of pressure-outlet 25.
    62  6.2878e-01  2.6834e-03  2.5409e-03  3.2904e-03  4.9857e-03  1.0450e-02  0:16:20  438

 Reversed flow on 3504 faces (85.8% area) of pressure-outlet 24.

 Reversed flow on 1452 faces (69.5% area) of pressure-outlet 25.
    63  6.3282e-01  2.6839e-03  2.5358e-03  3.2702e-03  4.9349e-03  1.0808e-02  0:17:25  437

 turbulent viscosity limited to viscosity ratio of 1.000000e+05 in 5 cells 

 Reversed flow on 3520 faces (85.6% area) of pressure-outlet 24.

 Reversed flow on 1448 faces (69.3% area) of pressure-outlet 25.
    64  6.3487e-01  2.6558e-03  2.5379e-03  3.2465e-03  4.9144e-03  1.1112e-02  0:16:48  436

 turbulent viscosity limited to viscosity ratio of 1.000000e+05 in 1 cells 

 Reversed flow on 3504 faces (85.4% area) of pressure-outlet 24.

 Reversed flow on 1444 faces (69.2% area) of pressure-outlet 25.
    65  6.3438e-01  2.6158e-03  2.5381e-03  3.2247e-03  4.7210e-03  1.0963e-02  0:17:46  435

 Reversed flow on 3461 faces (84.8% area) of pressure-outlet 24.

 Reversed flow on 1441 faces (69.0% area) of pressure-outlet 25.
    66  6.2889e-01  2.5357e-03  2.4945e-03  3.1583e-03  4.6012e-03  1.0707e-02  0:15:37  434

 Reversed flow on 3427 faces (84.1% area) of pressure-outlet 24.

 Reversed flow on 1440 faces (69.0% area) of pressure-outlet 25.

  iter  continuity  x-velocity  y-velocity  z-velocity           k     epsilon     time/iter
    67  6.2379e-01  2.4824e-03  2.4557e-03  3.1204e-03  4.5959e-03  1.1028e-02  0:15:21  433

 Reversed flow on 3388 faces (83.0% area) of pressure-outlet 24.

 Reversed flow on 1444 faces (69.2% area) of pressure-outlet 25.
    68  6.2221e-01  2.4422e-03  2.4321e-03  3.0875e-03  4.5639e-03  1.1091e-02  0:13:42  432

 Reversed flow on 3351 faces (82.2% area) of pressure-outlet 24.

 Reversed flow on 1449 faces (69.5% area) of pressure-outlet 25.
    69  6.2074e-01  2.4133e-03  2.4046e-03  3.0302e-03  4.5876e-03  1.1455e-02  0:13:48  431

 Reversed flow on 3318 faces (81.4% area) of pressure-outlet 24.

 Reversed flow on 1450 faces (69.5% area) of pressure-outlet 25.
    70  6.1730e-01  2.3760e-03  2.3821e-03  2.9503e-03  4.5675e-03  1.1363e-02  0:13:53  430

 turbulent viscosity limited to viscosity ratio of 1.000000e+05 in 3 cells 

 Reversed flow on 3286 faces (80.9% area) of pressure-outlet 24.

 Reversed flow on 1455 faces (69.7% area) of pressure-outlet 25.
    71  6.1394e-01  2.3419e-03  2.3524e-03  2.8683e-03  4.6325e-03  1.1635e-02  0:13:57  429

 turbulent viscosity limited to viscosity ratio of 1.000000e+05 in 4 cells 

 Reversed flow on 3267 faces (80.7% area) of pressure-outlet 24.

 Reversed flow on 1451 faces (69.5% area) of pressure-outlet 25.
    72  6.1004e-01  2.3035e-03  2.3280e-03  2.7922e-03  4.6131e-03  1.1402e-02  0:12:33  428

 turbulent viscosity limited to viscosity ratio of 1.000000e+05 in 6 cells 

 Reversed flow on 3268 faces (81.1% area) of pressure-outlet 24.

 Reversed flow on 1449 faces (69.4% area) of pressure-outlet 25.
    73  6.0543e-01  2.2740e-03  2.2939e-03  2.7239e-03  4.6240e-03  1.1554e-02  0:11:27  427

 turbulent viscosity limited to viscosity ratio of 1.000000e+05 in 6 cells 

 Reversed flow on 3252 faces (81.4% area) of pressure-outlet 24.

 Reversed flow on 1435 faces (68.7% area) of pressure-outlet 25.
    74  6.0066e-01  2.2473e-03  2.2585e-03  2.6680e-03  4.5151e-03  1.0949e-02  0:10:33  426

 turbulent viscosity limited to viscosity ratio of 1.000000e+05 in 5 cells 

 Reversed flow on 3224 faces (81.1% area) of pressure-outlet 24.

 Reversed flow on 1422 faces (68.1% area) of pressure-outlet 25.
    75  5.9556e-01  2.2181e-03  2.2167e-03  2.6224e-03  4.4587e-03  1.0704e-02  0:11:15  425

 Reversed flow on 3188 faces (80.7% area) of pressure-outlet 24.

 Reversed flow on 1416 faces (67.9% area) of pressure-outlet 25.
    76  5.9087e-01  2.1853e-03  2.1796e-03  2.5846e-03  4.3379e-03  1.0180e-02  0:11:49  424

 turbulent viscosity limited to viscosity ratio of 1.000000e+05 in 3 cells 

 Reversed flow on 3168 faces (80.5% area) of pressure-outlet 24.

 Reversed flow on 1411 faces (67.7% area) of pressure-outlet 25.
    77  5.8620e-01  2.1495e-03  2.1396e-03  2.5448e-03  4.3409e-03  1.0006e-02  0:12:15  423

 turbulent viscosity limited to viscosity ratio of 1.000000e+05 in 194 cells 

 Reversed flow on 3182 faces (81.0% area) of pressure-outlet 24.

 Reversed flow on 1401 faces (67.3% area) of pressure-outlet 25.

  iter  continuity  x-velocity  y-velocity  z-velocity           k     epsilon     time/iter
    78  5.8083e-01  2.1119e-03  2.1075e-03  2.5046e-03  4.7121e-03  9.9126e-03  0:11:11  422

 turbulent viscosity limited to viscosity ratio of 1.000000e+05 in 135 cells 

 Reversed flow on 3199 faces (81.5% area) of pressure-outlet 24.

 Reversed flow on 1401 faces (67.2% area) of pressure-outlet 25.
    79  5.7498e-01  2.0757e-03  2.0825e-03  2.4675e-03  6.0982e-03  9.9721e-03  0:11:44  421

 turbulent viscosity limited to viscosity ratio of 1.000000e+05 in 38 cells 

 Reversed flow on 3193 faces (81.5% area) of pressure-outlet 24.

 Reversed flow on 1398 faces (67.1% area) of pressure-outlet 25.
    80  5.6776e-01  2.0357e-03  2.0497e-03  2.4224e-03  5.7209e-03  9.7638e-03  0:12:10  420

 turbulent viscosity limited to viscosity ratio of 1.000000e+05 in 7 cells 

 Reversed flow on 3228 faces (82.2% area) of pressure-outlet 24.

 Reversed flow on 1399 faces (67.0% area) of pressure-outlet 25.
    81  5.6032e-01  1.9956e-03  2.0103e-03  2.3784e-03  4.7580e-03  9.2725e-03  0:11:06  419

 turbulent viscosity limited to viscosity ratio of 1.000000e+05 in 6 cells 

 Reversed flow on 3266 faces (83.0% area) of pressure-outlet 24.

 Reversed flow on 1404 faces (67.3% area) of pressure-outlet 25.
    82  5.5470e-01  1.9561e-03  1.9800e-03  2.3403e-03  4.1467e-03  8.8675e-03  0:10:15  418

 turbulent viscosity limited to viscosity ratio of 1.000000e+05 in 2 cells 

 Reversed flow on 3276 faces (83.1% area) of pressure-outlet 24.

 Reversed flow on 1403 faces (67.2% area) of pressure-outlet 25.
    83  5.5122e-01  1.9201e-03  1.9565e-03  2.3113e-03  3.8912e-03  8.4701e-03  0:10:58  417

 turbulent viscosity limited to viscosity ratio of 1.000000e+05 in 6 cells 

 Reversed flow on 3277 faces (83.1% area) of pressure-outlet 24.

 Reversed flow on 1410 faces (67.6% area) of pressure-outlet 25.
    84  5.4887e-01  1.8913e-03  1.9374e-03  2.2885e-03  3.7131e-03  8.2736e-03  0:10:08  416

 Reversed flow on 3290 faces (83.7% area) of pressure-outlet 24.

 Reversed flow on 1411 faces (67.6% area) of pressure-outlet 25.
    85  5.4821e-01  1.8650e-03  1.9173e-03  2.2676e-03  3.5550e-03  7.7523e-03  0:10:51  415

 Reversed flow on 3275 faces (83.7% area) of pressure-outlet 24.

 Reversed flow on 1413 faces (67.7% area) of pressure-outlet 25.
    86  5.4702e-01  1.8426e-03  1.8944e-03  2.2471e-03  3.3535e-03  7.2949e-03  0:11:25  414

 Reversed flow on 3251 faces (83.2% area) of pressure-outlet 24.

 Reversed flow on 1415 faces (67.8% area) of pressure-outlet 25.
    87  5.4516e-01  1.8221e-03  1.8687e-03  2.2270e-03  3.1892e-03  6.8988e-03  0:11:52  413

 Reversed flow on 3248 faces (83.2% area) of pressure-outlet 24.

 Reversed flow on 1416 faces (67.8% area) of pressure-outlet 25.
    88  5.4343e-01  1.8090e-03  1.8466e-03  2.2108e-03  3.0823e-03  6.9144e-03  0:10:51  412

 Reversed flow on 3225 faces (82.7% area) of pressure-outlet 24.

 Reversed flow on 1416 faces (67.8% area) of pressure-outlet 25.

  iter  continuity  x-velocity  y-velocity  z-velocity           k     epsilon     time/iter
    89  5.4297e-01  1.8018e-03  1.8255e-03  2.2004e-03  3.0071e-03  6.8553e-03  0:11:24  411

 Reversed flow on 3214 faces (82.4% area) of pressure-outlet 24.

 Reversed flow on 1416 faces (67.9% area) of pressure-outlet 25.
    90  5.4400e-01  1.8088e-03  1.8099e-03  2.1980e-03  2.9675e-03  6.7554e-03  0:11:50  410

 Reversed flow on 3199 faces (82.1% area) of pressure-outlet 24.

 Reversed flow on 1414 faces (67.8% area) of pressure-outlet 25.
    91  5.4725e-01  1.8225e-03  1.8016e-03  2.2039e-03  2.9574e-03  6.8418e-03  0:12:10  409

 Reversed flow on 3173 faces (81.6% area) of pressure-outlet 24.

 Reversed flow on 1411 faces (67.7% area) of pressure-outlet 25.
    92  5.5147e-01  1.8397e-03  1.7952e-03  2.2123e-03  2.9821e-03  6.9737e-03  0:11:04  408

 Reversed flow on 3147 faces (81.1% area) of pressure-outlet 24.

 Reversed flow on 1411 faces (67.7% area) of pressure-outlet 25.
    93  5.5568e-01  1.8539e-03  1.7855e-03  2.2203e-03  3.0103e-03  7.2740e-03  0:10:11  407

 Reversed flow on 3129 faces (80.6% area) of pressure-outlet 24.

 Reversed flow on 1407 faces (67.5% area) of pressure-outlet 25.
    94  5.5980e-01  1.8668e-03  1.7752e-03  2.2252e-03  3.0556e-03  7.3595e-03  0:10:50  406

 Reversed flow on 3110 faces (80.1% area) of pressure-outlet 24.

 Reversed flow on 1407 faces (67.5% area) of pressure-outlet 25.
    95  5.6359e-01  1.8793e-03  1.7636e-03  2.2265e-03  3.0624e-03  7.5601e-03  0:10:00  405

 Reversed flow on 3076 faces (79.3% area) of pressure-outlet 24.

 Reversed flow on 1402 faces (67.2% area) of pressure-outlet 25.
    96  5.6649e-01  1.8887e-03  1.7633e-03  2.2260e-03  3.0532e-03  7.4736e-03  0:10:40  404

 Reversed flow on 3043 faces (78.5% area) of pressure-outlet 24.

 Reversed flow on 1400 faces (67.2% area) of pressure-outlet 25.
    97  5.6937e-01  1.8954e-03  1.7656e-03  2.2255e-03  3.0182e-03  7.5989e-03  0:09:52  403

 Reversed flow on 3012 faces (77.7% area) of pressure-outlet 24.

 Reversed flow on 1403 faces (67.3% area) of pressure-outlet 25.
    98  5.7226e-01  1.8967e-03  1.7753e-03  2.2214e-03  2.9652e-03  7.3644e-03  0:10:33  402

 Reversed flow on 2988 faces (77.1% area) of pressure-outlet 24.

 Reversed flow on 1401 faces (67.3% area) of pressure-outlet 25.
    99  5.7468e-01  1.8976e-03  1.7873e-03  2.2171e-03  2.9023e-03  7.2490e-03  0:09:45  401

 Reversed flow on 2962 faces (76.4% area) of pressure-outlet 24.

 Reversed flow on 1406 faces (67.5% area) of pressure-outlet 25.

  iter  continuity  x-velocity  y-velocity  z-velocity           k     epsilon     time/iter
   100  5.7587e-01  1.8981e-03  1.8069e-03  2.2130e-03  2.8834e-03  7.0409e-03  0:10:27  400

 Reversed flow on 2936 faces (75.6% area) of pressure-outlet 24.

 Reversed flow on 1406 faces (67.5% area) of pressure-outlet 25.
   101  5.7646e-01  1.9058e-03  1.8261e-03  2.2115e-03  2.9011e-03  7.2147e-03  0:17:39  399

 Reversed flow on 2903 faces (74.8% area) of pressure-outlet 24.

 Reversed flow on 1407 faces (67.5% area) of pressure-outlet 25.
   102  5.7796e-01  1.9184e-03  1.8508e-03  2.2217e-03  2.9537e-03  7.2675e-03  0:16:44  398

 Reversed flow on 2870 faces (73.9% area) of pressure-outlet 24.

 Reversed flow on 1405 faces (67.4% area) of pressure-outlet 25.
   103  5.8026e-01  1.9374e-03  1.8755e-03  2.2402e-03  3.0011e-03  7.3906e-03  0:16:00  397

 turbulent viscosity limited to viscosity ratio of 1.000000e+05 in 2 cells 

 Reversed flow on 2853 faces (73.4% area) of pressure-outlet 24.

 Reversed flow on 1410 faces (67.7% area) of pressure-outlet 25.
   104  5.8327e-01  1.9581e-03  1.9032e-03  2.2634e-03  3.0678e-03  7.3638e-03  0:15:25  396

 turbulent viscosity limited to viscosity ratio of 1.000000e+05 in 2 cells 

 Reversed flow on 2853 faces (73.4% area) of pressure-outlet 24.

 Reversed flow on 1408 faces (67.5% area) of pressure-outlet 25.
   105  5.8725e-01  1.9765e-03  1.9280e-03  2.2949e-03  3.1017e-03  7.5017e-03  0:14:56  395

 turbulent viscosity limited to viscosity ratio of 1.000000e+05 in 2 cells 

 Reversed flow on 2860 faces (73.5% area) of pressure-outlet 24.

 Reversed flow on 1403 faces (67.3% area) of pressure-outlet 25.
   106  5.9280e-01  1.9962e-03  1.9526e-03  2.3353e-03  3.1583e-03  7.6873e-03  0:14:32  394

 turbulent viscosity limited to viscosity ratio of 1.000000e+05 in 3 cells 

 Reversed flow on 2873 faces (73.8% area) of pressure-outlet 24.

 Reversed flow on 1396 faces (66.9% area) of pressure-outlet 25.
   107  5.9887e-01  2.0125e-03  1.9796e-03  2.3797e-03  3.1736e-03  7.7413e-03  0:12:55  393

 turbulent viscosity limited to viscosity ratio of 1.000000e+05 in 7 cells 

 Reversed flow on 2891 faces (74.2% area) of pressure-outlet 24.

 Reversed flow on 1391 faces (66.7% area) of pressure-outlet 25.
   108  6.0507e-01  2.0361e-03  2.0124e-03  2.4165e-03  3.2019e-03  7.8113e-03  0:12:55  392

 turbulent viscosity limited to viscosity ratio of 1.000000e+05 in 3 cells 

 Reversed flow on 2913 faces (74.8% area) of pressure-outlet 24.

 Reversed flow on 1384 faces (66.4% area) of pressure-outlet 25.
   109  6.1054e-01  2.0666e-03  2.0460e-03  2.4499e-03  3.2105e-03  7.6509e-03  0:12:55  391

 Reversed flow on 2923 faces (75.1% area) of pressure-outlet 24.

 Reversed flow on 1374 faces (65.9% area) of pressure-outlet 25.
   110  6.1724e-01  2.1114e-03  2.0858e-03  2.4856e-03  3.2859e-03  7.8501e-03  0:12:54  390

 Reversed flow on 2922 faces (75.2% area) of pressure-outlet 24.

 Reversed flow on 1372 faces (65.8% area) of pressure-outlet 25.

  iter  continuity  x-velocity  y-velocity  z-velocity           k     epsilon     time/iter
   111  6.2590e-01  2.1590e-03  2.1310e-03  2.5308e-03  3.3400e-03  7.9655e-03  0:11:36  389

 Reversed flow on 2924 faces (75.2% area) of pressure-outlet 24.

 Reversed flow on 1375 faces (66.0% area) of pressure-outlet 25.
   112  6.3574e-01  2.2171e-03  2.1849e-03  2.5791e-03  3.4618e-03  8.3222e-03  0:11:50  388

 Reversed flow on 2933 faces (75.3% area) of pressure-outlet 24.

 Reversed flow on 1381 faces (66.2% area) of pressure-outlet 25.
   113  6.4700e-01  2.2848e-03  2.2530e-03  2.6412e-03  3.5351e-03  8.4088e-03  0:12:02  387

 Reversed flow on 2951 faces (75.9% area) of pressure-outlet 24.

 Reversed flow on 1383 faces (66.3% area) of pressure-outlet 25.
   114  6.6095e-01  2.3534e-03  2.3301e-03  2.7129e-03  3.6431e-03  8.6900e-03  0:10:53  386

 Reversed flow on 2961 faces (76.2% area) of pressure-outlet 24.

 Reversed flow on 1389 faces (66.6% area) of pressure-outlet 25.
   115  6.7696e-01  2.4048e-03  2.4062e-03  2.7823e-03  3.6859e-03  8.7724e-03  0:11:15  385

 Reversed flow on 2973 faces (76.5% area) of pressure-outlet 24.

 Reversed flow on 1392 faces (66.7% area) of pressure-outlet 25.
   116  6.9230e-01  2.4464e-03  2.4699e-03  2.8349e-03  3.7322e-03  8.8838e-03  0:11:32  384

 Reversed flow on 2 faces (0.4% area) of pressure-outlet 22.

 Reversed flow on 2985 faces (76.8% area) of pressure-outlet 24.

 Reversed flow on 1401 faces (67.2% area) of pressure-outlet 25.
   117  7.0297e-01  2.4853e-03  2.5203e-03  2.8717e-03  3.7563e-03  8.9640e-03  0:10:29  383

 Reversed flow on 5 faces (1.0% area) of pressure-outlet 22.

 Reversed flow on 2992 faces (76.9% area) of pressure-outlet 24.

 Reversed flow on 1403 faces (67.3% area) of pressure-outlet 25.
   118  7.1244e-01  2.5174e-03  2.5531e-03  2.8904e-03  3.8063e-03  8.9929e-03  0:12:11  382

 Reversed flow on 8 faces (1.5% area) of pressure-outlet 22.

 Reversed flow on 2993 faces (76.9% area) of pressure-outlet 24.

 Reversed flow on 1406 faces (67.5% area) of pressure-outlet 25.
   119  7.1910e-01  2.5470e-03  2.5781e-03  2.9079e-03  3.8312e-03  9.1588e-03  0:12:16  381

 Reversed flow on 12 faces (2.3% area) of pressure-outlet 22.

 Reversed flow on 2995 faces (77.0% area) of pressure-outlet 24.

 Reversed flow on 1407 faces (67.5% area) of pressure-outlet 25.
   120  7.2575e-01  2.5819e-03  2.6018e-03  2.9228e-03  3.8312e-03  9.4061e-03  0:11:03  380

 Reversed flow on 17 faces (3.0% area) of pressure-outlet 22.

 Reversed flow on 2981 faces (76.7% area) of pressure-outlet 24.

 Reversed flow on 1405 faces (67.4% area) of pressure-outlet 25.
   121  7.3301e-01  2.6176e-03  2.6139e-03  2.9330e-03  3.8109e-03  9.5037e-03  0:12:36  379

 Reversed flow on 17 faces (2.9% area) of pressure-outlet 22.

 Reversed flow on 2964 faces (76.2% area) of pressure-outlet 24.

 Reversed flow on 1399 faces (67.1% area) of pressure-outlet 25.

  iter  continuity  x-velocity  y-velocity  z-velocity           k     epsilon     time/iter
   122  7.3618e-01  2.6461e-03  2.6091e-03  2.9351e-03  3.7468e-03  9.5101e-03  0:11:19  378

 Reversed flow on 10 faces (1.5% area) of pressure-outlet 22.

 Reversed flow on 2940 faces (75.7% area) of pressure-outlet 24.

 Reversed flow on 1387 faces (66.6% area) of pressure-outlet 25.
   123  7.3753e-01  2.6592e-03  2.5910e-03  2.9310e-03  3.7196e-03  9.7755e-03  0:11:33  377

 Reversed flow on 10 faces (1.5% area) of pressure-outlet 22.

 Reversed flow on 2915 faces (75.2% area) of pressure-outlet 24.

 Reversed flow on 1388 faces (66.7% area) of pressure-outlet 25.
   124  7.3751e-01  2.6689e-03  2.5700e-03  2.9325e-03  3.7177e-03  9.8801e-03  0:10:28  376

 Reversed flow on 6 faces (0.9% area) of pressure-outlet 22.

 Reversed flow on 2895 faces (74.7% area) of pressure-outlet 24.

 Reversed flow on 1385 faces (66.5% area) of pressure-outlet 25.
   125  7.3895e-01  2.6715e-03  2.5633e-03  2.9503e-03  3.7661e-03  9.7501e-03  0:10:51  375

 Reversed flow on 4 faces (0.6% area) of pressure-outlet 22.

 Reversed flow on 2856 faces (73.8% area) of pressure-outlet 24.

 Reversed flow on 1383 faces (66.5% area) of pressure-outlet 25.
   126  7.4535e-01  2.6677e-03  2.5736e-03  2.9850e-03  3.8195e-03  9.6432e-03  0:11:09  374

 Reversed flow on 1 face (0.2% area) of pressure-outlet 22.

 Reversed flow on 2817 faces (72.8% area) of pressure-outlet 24.

 Reversed flow on 1377 faces (66.2% area) of pressure-outlet 25.
   127  7.5456e-01  2.6720e-03  2.5922e-03  3.0197e-03  3.8693e-03  9.7246e-03  0:11:23  373

 Reversed flow on 2792 faces (72.2% area) of pressure-outlet 24.

 Reversed flow on 1373 faces (66.0% area) of pressure-outlet 25.
   128  7.6563e-01  2.6754e-03  2.5996e-03  3.0472e-03  3.8919e-03  9.4293e-03  0:10:19  372

 Reversed flow on 2784 faces (71.9% area) of pressure-outlet 24.

 Reversed flow on 1375 faces (66.1% area) of pressure-outlet 25.
   129  7.7476e-01  2.6621e-03  2.5864e-03  3.0680e-03  3.9046e-03  9.1865e-03  0:10:43  371

 Reversed flow on 2770 faces (71.5% area) of pressure-outlet 24.

 Reversed flow on 1378 faces (66.2% area) of pressure-outlet 25.
   130  7.8131e-01  2.6292e-03  2.5820e-03  3.0646e-03  3.8408e-03  8.7218e-03  0:11:01  370

 Reversed flow on 2762 faces (71.3% area) of pressure-outlet 24.

 Reversed flow on 1380 faces (66.3% area) of pressure-outlet 25.
   131  7.8341e-01  2.5926e-03  2.5700e-03  3.0311e-03  3.7903e-03  8.6166e-03  0:10:01  369

 Reversed flow on 2761 faces (71.2% area) of pressure-outlet 24.

 Reversed flow on 1386 faces (66.6% area) of pressure-outlet 25.
   132  7.8082e-01  2.5574e-03  2.5219e-03  2.9835e-03  3.6940e-03  8.4883e-03  0:10:27  368

 Reversed flow on 2762 faces (71.3% area) of pressure-outlet 24.

 Reversed flow on 1386 faces (66.6% area) of pressure-outlet 25.

  iter  continuity  x-velocity  y-velocity  z-velocity           k     epsilon     time/iter
   133  7.7329e-01  2.5259e-03  2.4604e-03  2.9341e-03  3.6159e-03  8.4094e-03  0:10:47  367

 Reversed flow on 2763 faces (71.3% area) of pressure-outlet 24.

 Reversed flow on 1388 faces (66.7% area) of pressure-outlet 25.
   134  7.6219e-01  2.4833e-03  2.4114e-03  2.8800e-03  3.5080e-03  8.1719e-03  0:09:49  366

 turbulent viscosity limited to viscosity ratio of 1.000000e+05 in 1 cells 

 Reversed flow on 3 faces (0.5% area) of pressure-outlet 22.

 Reversed flow on 2759 faces (71.2% area) of pressure-outlet 24.

 Reversed flow on 1388 faces (66.6% area) of pressure-outlet 25.
   135  7.4743e-01  2.4439e-03  2.3789e-03  2.8267e-03  3.4610e-03  8.0841e-03  0:11:29  365

 Reversed flow on 7 faces (1.1% area) of pressure-outlet 22.

 Reversed flow on 2775 faces (71.5% area) of pressure-outlet 24.

 Reversed flow on 1389 faces (66.7% area) of pressure-outlet 25.
   136  7.3313e-01  2.4402e-03  2.3516e-03  2.8086e-03  3.4201e-03  7.9370e-03  0:11:35  364

 Reversed flow on 19 faces (3.0% area) of pressure-outlet 22.

 Reversed flow on 2777 faces (71.5% area) of pressure-outlet 24.

 Reversed flow on 1385 faces (66.5% area) of pressure-outlet 25.
   137  7.2699e-01  2.4715e-03  2.3379e-03  2.8184e-03  3.4247e-03  7.9222e-03  0:10:27  363

 Reversed flow on 26 faces (4.2% area) of pressure-outlet 22.

 Reversed flow on 2790 faces (71.7% area) of pressure-outlet 24.

 Reversed flow on 1374 faces (66.0% area) of pressure-outlet 25.
   138  7.2907e-01  2.4908e-03  2.3439e-03  2.8238e-03  3.4493e-03  7.8643e-03  0:10:45  362

 Reversed flow on 38 faces (6.1% area) of pressure-outlet 22.

 Reversed flow on 2791 faces (71.8% area) of pressure-outlet 24.

 Reversed flow on 1379 faces (66.2% area) of pressure-outlet 25.
   139  7.3260e-01  2.4618e-03  2.3954e-03  2.8307e-03  3.4971e-03  7.8425e-03  0:10:59  361

 turbulent viscosity limited to viscosity ratio of 1.000000e+05 in 1 cells 

 Reversed flow on 42 faces (6.8% area) of pressure-outlet 22.

 Reversed flow on 2797 faces (71.9% area) of pressure-outlet 24.

 Reversed flow on 1378 faces (66.1% area) of pressure-outlet 25.
   140  7.3559e-01  2.4606e-03  2.4300e-03  2.8455e-03  3.5319e-03  7.8512e-03  0:09:58  360

 turbulent viscosity limited to viscosity ratio of 1.000000e+05 in 1 cells 

 Reversed flow on 47 faces (7.7% area) of pressure-outlet 22.

 Reversed flow on 2794 faces (71.8% area) of pressure-outlet 24.

 Reversed flow on 1370 faces (65.7% area) of pressure-outlet 25.
   141  7.3694e-01  2.5001e-03  2.4343e-03  2.8486e-03  3.5390e-03  7.7053e-03  0:10:21  359

 turbulent viscosity limited to viscosity ratio of 1.000000e+05 in 1 cells 

 Reversed flow on 54 faces (8.9% area) of pressure-outlet 22.

 Reversed flow on 2793 faces (71.9% area) of pressure-outlet 24.

 Reversed flow on 1357 faces (65.1% area) of pressure-outlet 25.
   142  7.3951e-01  2.5112e-03  2.4575e-03  2.8501e-03  3.5258e-03  7.6285e-03  0:10:38  358

 Reversed flow on 58 faces (9.8% area) of pressure-outlet 22.

 Reversed flow on 2791 faces (71.9% area) of pressure-outlet 24.

 Reversed flow on 1343 faces (64.4% area) of pressure-outlet 25.
   143  7.4490e-01  2.5081e-03  2.4995e-03  2.8630e-03  3.5054e-03  7.5157e-03  0:09:41  357

 turbulent viscosity limited to viscosity ratio of 1.000000e+05 in 2 cells 

 Reversed flow on 56 faces (9.8% area) of pressure-outlet 22.

 Reversed flow on 2794 faces (72.0% area) of pressure-outlet 24.

 Reversed flow on 1340 faces (64.3% area) of pressure-outlet 25.

  iter  continuity  x-velocity  y-velocity  z-velocity           k     epsilon     time/iter
   144  7.5141e-01  2.5047e-03  2.5088e-03  2.8921e-03  3.5319e-03  7.5295e-03  0:10:06  356

 Reversed flow on 57 faces (10.3% area) of pressure-outlet 22.

 Reversed flow on 2792 faces (71.9% area) of pressure-outlet 24.

 Reversed flow on 1342 faces (64.3% area) of pressure-outlet 25.
   145  7.5512e-01  2.4986e-03  2.4913e-03  2.9112e-03  3.5210e-03  7.3023e-03  0:10:25  355

 Reversed flow on 55 faces (10.2% area) of pressure-outlet 22.

 Reversed flow on 2800 faces (72.1% area) of pressure-outlet 24.

 Reversed flow on 1343 faces (64.4% area) of pressure-outlet 25.
   146  7.5652e-01  2.5155e-03  2.4615e-03  2.9035e-03  3.5198e-03  7.3334e-03  0:10:40  354

 Reversed flow on 52 faces (9.7% area) of pressure-outlet 22.

 Reversed flow on 2803 faces (72.2% area) of pressure-outlet 24.

 Reversed flow on 1341 faces (64.2% area) of pressure-outlet 25.
   147  7.5506e-01  2.4968e-03  2.4532e-03  2.8647e-03  3.4608e-03  7.2572e-03  0:09:41  353

 Reversed flow on 45 faces (8.9% area) of pressure-outlet 22.

 Reversed flow on 2812 faces (72.4% area) of pressure-outlet 24.

 Reversed flow on 1339 faces (64.1% area) of pressure-outlet 25.
   148  7.4961e-01  2.4524e-03  2.4598e-03  2.8209e-03  3.4605e-03  7.3423e-03  0:10:05  352

 Reversed flow on 44 faces (8.7% area) of pressure-outlet 22.

 Reversed flow on 2809 faces (72.3% area) of pressure-outlet 24.

 Reversed flow on 1339 faces (64.2% area) of pressure-outlet 25.
   149  7.4572e-01  2.4385e-03  2.4522e-03  2.8103e-03  3.4478e-03  7.1800e-03  0:10:23  351

 Reversed flow on 47 faces (9.4% area) of pressure-outlet 22.

 Reversed flow on 2804 faces (72.3% area) of pressure-outlet 24.

 Reversed flow on 1342 faces (64.3% area) of pressure-outlet 25.
   150  7.4627e-01  2.4136e-03  2.4285e-03  2.7996e-03  3.5216e-03  7.3247e-03  0:10:37  350

 turbulent viscosity limited to viscosity ratio of 1.000000e+05 in 1 cells 

 Reversed flow on 50 faces (9.9% area) of pressure-outlet 22.

 Reversed flow on 2804 faces (72.4% area) of pressure-outlet 24.

 Reversed flow on 1347 faces (64.5% area) of pressure-outlet 25.
   151  7.4581e-01  2.3994e-03  2.3744e-03  2.7734e-03  3.5716e-03  7.3085e-03  0:09:38  349

 turbulent viscosity limited to viscosity ratio of 1.000000e+05 in 1 cells 

 Reversed flow on 53 faces (10.5% area) of pressure-outlet 22.

 Reversed flow on 2805 faces (72.5% area) of pressure-outlet 24.

 Reversed flow on 1341 faces (64.2% area) of pressure-outlet 25.
   152  7.4072e-01  2.3782e-03  2.3586e-03  2.7435e-03  3.6730e-03  7.5332e-03  0:10:00  348

 turbulent viscosity limited to viscosity ratio of 1.000000e+05 in 1 cells 

 Reversed flow on 56 faces (10.9% area) of pressure-outlet 22.

 Reversed flow on 2816 faces (72.7% area) of pressure-outlet 24.

 Reversed flow on 1339 faces (64.1% area) of pressure-outlet 25.
   153  7.3644e-01  2.3769e-03  2.3891e-03  2.7349e-03  3.6660e-03  7.4431e-03  0:10:17  347

 Reversed flow on 50 faces (9.6% area) of pressure-outlet 22.

 Reversed flow on 2813 faces (72.5% area) of pressure-outlet 24.

 Reversed flow on 1341 faces (64.2% area) of pressure-outlet 25.
   154  7.3665e-01  2.3875e-03  2.4063e-03  2.7404e-03  3.6925e-03  7.5840e-03  0:09:22  346

 turbulent viscosity limited to viscosity ratio of 1.000000e+05 in 4 cells 

 Reversed flow on 49 faces (9.3% area) of pressure-outlet 22.

 Reversed flow on 2820 faces (72.6% area) of pressure-outlet 24.

 Reversed flow on 1349 faces (64.5% area) of pressure-outlet 25.

  iter  continuity  x-velocity  y-velocity  z-velocity           k     epsilon     time/iter
   155  7.3737e-01  2.3862e-03  2.4050e-03  2.7672e-03  3.6948e-03  7.4367e-03  0:09:46  345

 turbulent viscosity limited to viscosity ratio of 1.000000e+05 in 12 cells 

 Reversed flow on 49 faces (9.2% area) of pressure-outlet 22.

 Reversed flow on 2817 faces (72.6% area) of pressure-outlet 24.

 Reversed flow on 1340 faces (64.2% area) of pressure-outlet 25.
   156  7.3759e-01  2.4374e-03  2.3878e-03  2.7863e-03  3.7721e-03  7.5858e-03  0:08:56  344

 turbulent viscosity limited to viscosity ratio of 1.000000e+05 in 10 cells 

 Reversed flow on 49 faces (9.2% area) of pressure-outlet 22.

 Reversed flow on 2826 faces (73.0% area) of pressure-outlet 24.

 Reversed flow on 1337 faces (64.0% area) of pressure-outlet 25.
   157  7.4463e-01  2.4900e-03  2.4663e-03  2.8134e-03  3.7186e-03  7.4226e-03  0:09:25  343

 turbulent viscosity limited to viscosity ratio of 1.000000e+05 in 4 cells 

 Reversed flow on 12 faces (2.3% area) of pressure-outlet 22.

 Reversed flow on 2829 faces (73.0% area) of pressure-outlet 24.

 Reversed flow on 1344 faces (64.3% area) of pressure-outlet 25.
   158  7.5810e-01  2.5275e-03  2.5492e-03  2.8498e-03  3.6835e-03  7.4084e-03  0:08:39  342

 turbulent viscosity limited to viscosity ratio of 1.000000e+05 in 6 cells 

 Reversed flow on 5 faces (1.0% area) of pressure-outlet 22.

 Reversed flow on 2846 faces (73.4% area) of pressure-outlet 24.

 Reversed flow on 1355 faces (64.9% area) of pressure-outlet 25.
   159  7.6929e-01  2.5540e-03  2.5684e-03  2.8830e-03  3.5512e-03  7.1190e-03  0:09:10  341

 turbulent viscosity limited to viscosity ratio of 1.000000e+05 in 2 cells 

 Reversed flow on 2 faces (0.4% area) of pressure-outlet 22.

 Reversed flow on 2852 faces (73.5% area) of pressure-outlet 24.

 Reversed flow on 1362 faces (65.1% area) of pressure-outlet 25.
   160  7.7521e-01  2.5239e-03  2.5631e-03  2.9055e-03  3.5506e-03  7.2420e-03  0:08:27  340

 Reversed flow on 3 faces (0.6% area) of pressure-outlet 22.

 Reversed flow on 2852 faces (73.6% area) of pressure-outlet 24.

 Reversed flow on 1367 faces (65.4% area) of pressure-outlet 25.
   161  7.7581e-01  2.5661e-03  2.5354e-03  2.8881e-03  3.4357e-03  7.0990e-03  0:09:00  339

 Reversed flow on 3 faces (0.6% area) of pressure-outlet 22.

 Reversed flow on 2841 faces (73.2% area) of pressure-outlet 24.

 Reversed flow on 1363 faces (65.2% area) of pressure-outlet 25.
   162  7.7826e-01  2.5912e-03  2.5716e-03  2.8752e-03  3.4106e-03  7.1804e-03  0:09:26  338

 Reversed flow on 2843 faces (73.2% area) of pressure-outlet 24.

 Reversed flow on 1367 faces (65.4% area) of pressure-outlet 25.
   163  7.7870e-01  2.6058e-03  2.5715e-03  2.8636e-03  3.3144e-03  7.0146e-03  0:09:46  337

 Reversed flow on 2839 faces (73.0% area) of pressure-outlet 24.

 Reversed flow on 1362 faces (65.2% area) of pressure-outlet 25.
   164  7.7418e-01  2.6074e-03  2.5309e-03  2.8244e-03  3.3382e-03  7.1547e-03  0:08:55  336

 Reversed flow on 2835 faces (72.9% area) of pressure-outlet 24.

 Reversed flow on 1367 faces (65.3% area) of pressure-outlet 25.
   165  7.6559e-01  2.5676e-03  2.5051e-03  2.7915e-03  3.2980e-03  7.1216e-03  0:09:21  335

 turbulent viscosity limited to viscosity ratio of 1.000000e+05 in 2 cells 

 Reversed flow on 2842 faces (73.0% area) of pressure-outlet 24.

 Reversed flow on 1365 faces (65.3% area) of pressure-outlet 25.

  iter  continuity  x-velocity  y-velocity  z-velocity           k     epsilon     time/iter
   166  7.5549e-01  2.5684e-03  2.4623e-03  2.7560e-03  3.3100e-03  7.2003e-03  0:08:34  334

 turbulent viscosity limited to viscosity ratio of 1.000000e+05 in 5 cells 

 Reversed flow on 2852 faces (73.1% area) of pressure-outlet 24.

 Reversed flow on 1357 faces (65.0% area) of pressure-outlet 25.
   167  7.4643e-01  2.5287e-03  2.4610e-03  2.7349e-03  3.2822e-03  7.0489e-03  0:07:57  333

 turbulent viscosity limited to viscosity ratio of 1.000000e+05 in 10 cells 

 Reversed flow on 2865 faces (73.5% area) of pressure-outlet 24.

 Reversed flow on 1357 faces (65.0% area) of pressure-outlet 25.
   168  7.3694e-01  2.4891e-03  2.4059e-03  2.6722e-03  3.2719e-03  6.9138e-03  0:08:33  332

 turbulent viscosity limited to viscosity ratio of 1.000000e+05 in 13 cells 

 Reversed flow on 2881 faces (73.9% area) of pressure-outlet 24.

 Reversed flow on 1349 faces (64.6% area) of pressure-outlet 25.
   169  7.2531e-01  2.4372e-03  2.3705e-03  2.6027e-03  3.2090e-03  6.7007e-03  0:09:01  331

 turbulent viscosity limited to viscosity ratio of 1.000000e+05 in 9 cells 

 Reversed flow on 2891 faces (74.3% area) of pressure-outlet 24.

 Reversed flow on 1346 faces (64.5% area) of pressure-outlet 25.
   170  7.1497e-01  2.3619e-03  2.3600e-03  2.5759e-03  3.0997e-03  6.4992e-03  0:08:18  330

[...]

 Reversed flow on 74 faces (15.0% area) of pressure-outlet 22.

 Reversed flow on 2788 faces (71.3% area) of pressure-outlet 24.

 Reversed flow on 1335 faces (63.9% area) of pressure-outlet 25.
   451  5.4928e-01  1.5547e-03  1.5439e-03  1.7473e-03  2.2894e-03  3.4349e-03  0:01:24   49

 Reversed flow on 73 faces (14.8% area) of pressure-outlet 22.

 Reversed flow on 2793 faces (71.5% area) of pressure-outlet 24.

 Reversed flow on 1340 faces (64.1% area) of pressure-outlet 25.

  iter  continuity  x-velocity  y-velocity  z-velocity           k     epsilon     time/iter
   452  5.4664e-01  1.5470e-03  1.5477e-03  1.7435e-03  2.1707e-03  3.2456e-03  0:01:16   48

 Reversed flow on 73 faces (14.8% area) of pressure-outlet 22.

 Reversed flow on 2788 faces (71.4% area) of pressure-outlet 24.

 Reversed flow on 1335 faces (63.9% area) of pressure-outlet 25.
   453  5.4507e-01  1.5568e-03  1.5406e-03  1.7697e-03  2.0676e-03  3.1589e-03  0:01:18   47

 turbulent viscosity limited to viscosity ratio of 1.000000e+05 in 3 cells 

 Reversed flow on 73 faces (14.8% area) of pressure-outlet 22.

 Reversed flow on 2779 faces (71.1% area) of pressure-outlet 24.

 Reversed flow on 1337 faces (64.0% area) of pressure-outlet 25.
   454  5.4645e-01  1.5654e-03  1.5552e-03  1.8116e-03  2.0182e-03  3.0288e-03  0:01:10   46

 turbulent viscosity limited to viscosity ratio of 1.000000e+05 in 11 cells 

 Reversed flow on 73 faces (14.8% area) of pressure-outlet 22.

 Reversed flow on 2761 faces (70.7% area) of pressure-outlet 24.

 Reversed flow on 1335 faces (63.9% area) of pressure-outlet 25.
   455  5.5023e-01  1.6061e-03  1.5805e-03  1.8449e-03  2.0325e-03  3.0242e-03  0:01:13   45

 turbulent viscosity limited to viscosity ratio of 1.000000e+05 in 2 cells 

 Reversed flow on 73 faces (14.8% area) of pressure-outlet 22.

 Reversed flow on 2758 faces (70.5% area) of pressure-outlet 24.

 Reversed flow on 1343 faces (64.3% area) of pressure-outlet 25.
   456  5.5978e-01  1.6267e-03  1.6607e-03  1.8672e-03  2.1110e-03  3.0546e-03  0:01:15   44

 turbulent viscosity limited to viscosity ratio of 1.000000e+05 in 1 cells 

 Reversed flow on 73 faces (14.8% area) of pressure-outlet 22.

 Reversed flow on 2751 faces (70.2% area) of pressure-outlet 24.

 Reversed flow on 1345 faces (64.3% area) of pressure-outlet 25.
   457  5.7059e-01  1.6779e-03  1.6952e-03  1.8979e-03  2.0843e-03  3.1467e-03  0:01:07   43

 Reversed flow on 72 faces (14.7% area) of pressure-outlet 22.

 Reversed flow on 2745 faces (70.2% area) of pressure-outlet 24.

 Reversed flow on 1343 faces (64.2% area) of pressure-outlet 25.
   458  5.8053e-01  1.7321e-03  1.7124e-03  1.9380e-03  2.0577e-03  3.1021e-03  0:01:09   42

 Reversed flow on 73 faces (14.9% area) of pressure-outlet 22.

 Reversed flow on 2749 faces (70.3% area) of pressure-outlet 24.

 Reversed flow on 1342 faces (64.2% area) of pressure-outlet 25.
   459  5.8706e-01  1.7314e-03  1.7402e-03  1.9652e-03  2.0959e-03  3.1056e-03  0:01:02   41

 Reversed flow on 72 faces (14.7% area) of pressure-outlet 22.

 Reversed flow on 2731 faces (69.9% area) of pressure-outlet 24.

 Reversed flow on 1339 faces (64.0% area) of pressure-outlet 25.
   460  5.8939e-01  1.7353e-03  1.7565e-03  1.9882e-03  2.1440e-03  3.1244e-03  0:00:57   40

 Reversed flow on 73 faces (14.9% area) of pressure-outlet 22.

 Reversed flow on 2721 faces (69.6% area) of pressure-outlet 24.

 Reversed flow on 1336 faces (63.8% area) of pressure-outlet 25.
   461  5.9221e-01  1.7488e-03  1.7764e-03  2.0184e-03  2.2106e-03  3.2700e-03  0:01:00   39

 Reversed flow on 72 faces (14.8% area) of pressure-outlet 22.

 Reversed flow on 2717 faces (69.4% area) of pressure-outlet 24.

 Reversed flow on 1341 faces (64.0% area) of pressure-outlet 25.
   462  5.9945e-01  1.7977e-03  1.7951e-03  2.0536e-03  2.2280e-03  3.3059e-03  0:00:54   38

 Reversed flow on 71 faces (14.5% area) of pressure-outlet 22.

 Reversed flow on 2710 faces (69.1% area) of pressure-outlet 24.

 Reversed flow on 1337 faces (63.8% area) of pressure-outlet 25.

  iter  continuity  x-velocity  y-velocity  z-velocity           k     epsilon     time/iter
   463  6.0584e-01  1.8466e-03  1.7903e-03  2.0712e-03  2.2376e-03  3.3580e-03  0:00:57   37

 Reversed flow on 73 faces (14.8% area) of pressure-outlet 22.

 Reversed flow on 2701 faces (68.8% area) of pressure-outlet 24.

 Reversed flow on 1336 faces (63.8% area) of pressure-outlet 25.
   464  6.0932e-01  1.8273e-03  1.8223e-03  2.0828e-03  2.2565e-03  3.4328e-03  0:00:52   36

 turbulent viscosity limited to viscosity ratio of 1.000000e+05 in 2 cells 

 Reversed flow on 74 faces (15.1% area) of pressure-outlet 22.

 Reversed flow on 2707 faces (69.0% area) of pressure-outlet 24.

 Reversed flow on 1331 faces (63.6% area) of pressure-outlet 25.
   465  6.1269e-01  1.8454e-03  1.8310e-03  2.0948e-03  2.3222e-03  3.6080e-03  0:00:54   35

 turbulent viscosity limited to viscosity ratio of 1.000000e+05 in 1 cells 

 Reversed flow on 74 faces (15.1% area) of pressure-outlet 22.

 Reversed flow on 2728 faces (69.4% area) of pressure-outlet 24.

 Reversed flow on 1330 faces (63.6% area) of pressure-outlet 25.
   466  6.2023e-01  1.8441e-03  1.8289e-03  2.1090e-03  2.4154e-03  3.6871e-03  0:00:56   34

 turbulent viscosity limited to viscosity ratio of 1.000000e+05 in 1 cells 

 Reversed flow on 76 faces (15.5% area) of pressure-outlet 22.

 Reversed flow on 2754 faces (70.1% area) of pressure-outlet 24.

 Reversed flow on 1332 faces (63.7% area) of pressure-outlet 25.
   467  6.2638e-01  1.8572e-03  1.8418e-03  2.1285e-03  2.5774e-03  3.7955e-03  0:00:56   33

 Reversed flow on 77 faces (15.6% area) of pressure-outlet 22.

 Reversed flow on 2763 faces (70.3% area) of pressure-outlet 24.

 Reversed flow on 1328 faces (63.5% area) of pressure-outlet 25.
   468  6.3108e-01  1.8992e-03  1.8365e-03  2.1536e-03  2.5493e-03  3.6883e-03  0:00:50   32

 Reversed flow on 77 faces (15.6% area) of pressure-outlet 22.

 Reversed flow on 2749 faces (70.0% area) of pressure-outlet 24.

 Reversed flow on 1325 faces (63.4% area) of pressure-outlet 25.
   469  6.3638e-01  1.8924e-03  1.8835e-03  2.1689e-03  2.5666e-03  3.7870e-03  0:00:51   31

 Reversed flow on 77 faces (15.6% area) of pressure-outlet 22.

 Reversed flow on 2733 faces (69.8% area) of pressure-outlet 24.

 Reversed flow on 1327 faces (63.4% area) of pressure-outlet 25.
   470  6.4434e-01  1.8976e-03  1.9021e-03  2.1778e-03  2.5654e-03  3.8053e-03  0:00:52   30

 Reversed flow on 77 faces (15.6% area) of pressure-outlet 22.

 Reversed flow on 2728 faces (69.7% area) of pressure-outlet 24.

 Reversed flow on 1329 faces (63.6% area) of pressure-outlet 25.
   471  6.5083e-01  1.9129e-03  1.8938e-03  2.1855e-03  2.5578e-03  3.8132e-03  0:00:46   29

 turbulent viscosity limited to viscosity ratio of 1.000000e+05 in 5 cells 

 Reversed flow on 75 faces (15.2% area) of pressure-outlet 22.

 Reversed flow on 2729 faces (69.7% area) of pressure-outlet 24.

 Reversed flow on 1335 faces (63.9% area) of pressure-outlet 25.
   472  6.5776e-01  1.9218e-03  1.9308e-03  2.2015e-03  2.5463e-03  3.7234e-03  0:00:47   28

 turbulent viscosity limited to viscosity ratio of 1.000000e+05 in 2 cells 

 Reversed flow on 73 faces (14.8% area) of pressure-outlet 22.

 Reversed flow on 2724 faces (69.7% area) of pressure-outlet 24.

 Reversed flow on 1332 faces (63.7% area) of pressure-outlet 25.
   473  6.6373e-01  1.9527e-03  1.9365e-03  2.2083e-03  2.5904e-03  3.7214e-03  0:00:41   27

 turbulent viscosity limited to viscosity ratio of 1.000000e+05 in 13 cells 

 Reversed flow on 72 faces (14.7% area) of pressure-outlet 22.

 Reversed flow on 2712 faces (69.4% area) of pressure-outlet 24.

 Reversed flow on 1332 faces (63.7% area) of pressure-outlet 25.

  iter  continuity  x-velocity  y-velocity  z-velocity           k     epsilon     time/iter
   474  6.6781e-01  1.9463e-03  1.9493e-03  2.2102e-03  2.5859e-03  3.6972e-03  0:00:42   26

 turbulent viscosity limited to viscosity ratio of 1.000000e+05 in 23 cells 

 Reversed flow on 65 faces (13.1% area) of pressure-outlet 22.

 Reversed flow on 2706 faces (69.4% area) of pressure-outlet 24.

 Reversed flow on 1328 faces (63.5% area) of pressure-outlet 25.
   475  6.6902e-01  1.9084e-03  1.9504e-03  2.2035e-03  2.6372e-03  3.7898e-03  0:00:37   25

 turbulent viscosity limited to viscosity ratio of 1.000000e+05 in 40 cells 

 Reversed flow on 39 faces (7.5% area) of pressure-outlet 22.

 Reversed flow on 2689 faces (69.1% area) of pressure-outlet 24.

 Reversed flow on 1326 faces (63.4% area) of pressure-outlet 25.
   476  6.6887e-01  1.9093e-03  1.8877e-03  2.1889e-03  2.7265e-03  3.8405e-03  0:00:34   24

 turbulent viscosity limited to viscosity ratio of 1.000000e+05 in 31 cells 

 Reversed flow on 29 faces (5.4% area) of pressure-outlet 22.

 Reversed flow on 2683 faces (69.0% area) of pressure-outlet 24.

 Reversed flow on 1325 faces (63.4% area) of pressure-outlet 25.
   477  6.6553e-01  1.8922e-03  1.8725e-03  2.1866e-03  2.9198e-03  4.0793e-03  0:00:35   23

 turbulent viscosity limited to viscosity ratio of 1.000000e+05 in 9 cells 

 Reversed flow on 23 faces (4.1% area) of pressure-outlet 22.

 Reversed flow on 2677 faces (68.8% area) of pressure-outlet 24.

 Reversed flow on 1332 faces (63.7% area) of pressure-outlet 25.
   478  6.6124e-01  1.8838e-03  1.8842e-03  2.2014e-03  3.0326e-03  4.1296e-03  0:00:31   22

 Reversed flow on 18 faces (3.1% area) of pressure-outlet 22.

 Reversed flow on 2694 faces (69.3% area) of pressure-outlet 24.

 Reversed flow on 1333 faces (63.7% area) of pressure-outlet 25.
   479  6.5995e-01  1.8985e-03  1.8642e-03  2.2185e-03  2.8961e-03  4.1036e-03  0:00:32   21

 turbulent viscosity limited to viscosity ratio of 1.000000e+05 in 8 cells 

 Reversed flow on 18 faces (3.1% area) of pressure-outlet 22.

 Reversed flow on 2706 faces (69.6% area) of pressure-outlet 24.

 Reversed flow on 1330 faces (63.5% area) of pressure-outlet 25.
   480  6.5979e-01  1.8929e-03  1.8657e-03  2.2191e-03  2.6926e-03  3.9467e-03  0:00:33   20

 turbulent viscosity limited to viscosity ratio of 1.000000e+05 in 40 cells 

 Reversed flow on 21 faces (3.7% area) of pressure-outlet 22.

 Reversed flow on 2689 faces (69.2% area) of pressure-outlet 24.

 Reversed flow on 1330 faces (63.5% area) of pressure-outlet 25.
   481  6.6065e-01  1.8750e-03  1.8543e-03  2.2176e-03  2.6266e-03  3.8667e-03  0:00:29   19

 turbulent viscosity limited to viscosity ratio of 1.000000e+05 in 84 cells 

 Reversed flow on 22 faces (4.0% area) of pressure-outlet 22.

 Reversed flow on 2673 faces (68.8% area) of pressure-outlet 24.

 Reversed flow on 1333 faces (63.6% area) of pressure-outlet 25.
   482  6.6189e-01  1.8711e-03  1.8336e-03  2.2149e-03  2.6715e-03  3.8382e-03  0:00:32   18

 turbulent viscosity limited to viscosity ratio of 1.000000e+05 in 63 cells 

 Reversed flow on 20 faces (3.7% area) of pressure-outlet 22.

 Reversed flow on 2659 faces (68.6% area) of pressure-outlet 24.

 Reversed flow on 1338 faces (63.9% area) of pressure-outlet 25.
   483  6.6120e-01  1.8597e-03  1.8118e-03  2.2035e-03  2.7980e-03  3.8827e-03  0:00:28   17

 turbulent viscosity limited to viscosity ratio of 1.000000e+05 in 12 cells 

 Reversed flow on 18 faces (3.5% area) of pressure-outlet 22.

 Reversed flow on 2663 faces (68.8% area) of pressure-outlet 24.

 Reversed flow on 1334 faces (63.7% area) of pressure-outlet 25.
   484  6.5862e-01  1.8446e-03  1.7836e-03  2.1863e-03  2.7802e-03  3.8337e-03  0:00:27   16

 turbulent viscosity limited to viscosity ratio of 1.000000e+05 in 3 cells 

 Reversed flow on 18 faces (3.6% area) of pressure-outlet 22.

 Reversed flow on 2672 faces (69.1% area) of pressure-outlet 24.

 Reversed flow on 1330 faces (63.5% area) of pressure-outlet 25.

  iter  continuity  x-velocity  y-velocity  z-velocity           k     epsilon     time/iter
   485  6.5520e-01  1.8342e-03  1.7675e-03  2.1678e-03  2.6817e-03  3.8427e-03  0:00:27   15

 turbulent viscosity limited to viscosity ratio of 1.000000e+05 in 1 cells 

 Reversed flow on 24 faces (5.0% area) of pressure-outlet 22.

 Reversed flow on 2685 faces (69.4% area) of pressure-outlet 24.

 Reversed flow on 1328 faces (63.4% area) of pressure-outlet 25.
   486  6.5283e-01  1.8377e-03  1.7646e-03  2.1648e-03  2.6008e-03  3.7929e-03  0:00:25   14

 Reversed flow on 26 faces (5.4% area) of pressure-outlet 22.

 Reversed flow on 2691 faces (69.6% area) of pressure-outlet 24.

 Reversed flow on 1328 faces (63.4% area) of pressure-outlet 25.
   487  6.5135e-01  1.8388e-03  1.7565e-03  2.1580e-03  2.6161e-03  3.8717e-03  0:00:21   13

 Reversed flow on 31 faces (6.5% area) of pressure-outlet 22.

 Reversed flow on 2694 faces (69.6% area) of pressure-outlet 24.

 Reversed flow on 1332 faces (63.6% area) of pressure-outlet 25.
   488  6.5073e-01  1.8214e-03  1.7616e-03  2.1493e-03  2.6551e-03  3.8987e-03  0:00:21   12

 turbulent viscosity limited to viscosity ratio of 1.000000e+05 in 2 cells 

 Reversed flow on 34 faces (7.1% area) of pressure-outlet 22.

 Reversed flow on 2710 faces (70.0% area) of pressure-outlet 24.

 Reversed flow on 1333 faces (63.6% area) of pressure-outlet 25.
   489  6.5040e-01  1.8164e-03  1.7680e-03  2.1510e-03  2.7153e-03  4.0277e-03  0:00:20   11

 turbulent viscosity limited to viscosity ratio of 1.000000e+05 in 1 cells 

 Reversed flow on 38 faces (7.8% area) of pressure-outlet 22.

 Reversed flow on 2722 faces (70.2% area) of pressure-outlet 24.

 Reversed flow on 1328 faces (63.4% area) of pressure-outlet 25.
   490  6.5284e-01  1.8375e-03  1.7714e-03  2.1645e-03  2.7459e-03  4.0443e-03  0:00:18   10

 turbulent viscosity limited to viscosity ratio of 1.000000e+05 in 4 cells 

 Reversed flow on 41 faces (8.4% area) of pressure-outlet 22.

 Reversed flow on 2720 faces (70.0% area) of pressure-outlet 24.

 Reversed flow on 1328 faces (63.5% area) of pressure-outlet 25.
   491  6.5555e-01  1.8609e-03  1.7875e-03  2.1863e-03  2.7548e-03  4.0945e-03  0:00:17    9

 turbulent viscosity limited to viscosity ratio of 1.000000e+05 in 6 cells 

 Reversed flow on 43 faces (8.7% area) of pressure-outlet 22.

 Reversed flow on 2726 faces (70.0% area) of pressure-outlet 24.

 Reversed flow on 1327 faces (63.4% area) of pressure-outlet 25.
   492  6.5843e-01  1.8715e-03  1.8048e-03  2.2064e-03  2.8061e-03  4.1070e-03  0:00:13    8

 turbulent viscosity limited to viscosity ratio of 1.000000e+05 in 8 cells 

 Reversed flow on 43 faces (8.7% area) of pressure-outlet 22.

 Reversed flow on 2751 faces (70.4% area) of pressure-outlet 24.

 Reversed flow on 1321 faces (63.2% area) of pressure-outlet 25.
   493  6.6107e-01  1.8705e-03  1.8260e-03  2.2106e-03  2.8769e-03  4.1611e-03  0:00:11    7

 turbulent viscosity limited to viscosity ratio of 1.000000e+05 in 2 cells 

 Reversed flow on 46 faces (9.2% area) of pressure-outlet 22.

 Reversed flow on 2762 faces (70.6% area) of pressure-outlet 24.

 Reversed flow on 1318 faces (63.0% area) of pressure-outlet 25.
   494  6.6591e-01  1.8687e-03  1.8362e-03  2.2044e-03  2.8579e-03  4.0998e-03  0:00:10    6

 Reversed flow on 51 faces (10.1% area) of pressure-outlet 22.

 Reversed flow on 2768 faces (70.7% area) of pressure-outlet 24.

 Reversed flow on 1319 faces (63.1% area) of pressure-outlet 25.
   495  6.6776e-01  1.8569e-03  1.8217e-03  2.1908e-03  2.8054e-03  4.1262e-03  0:00:09    5

 turbulent viscosity limited to viscosity ratio of 1.000000e+05 in 4 cells 

 Reversed flow on 51 faces (10.1% area) of pressure-outlet 22.

 Reversed flow on 2769 faces (70.8% area) of pressure-outlet 24.

 Reversed flow on 1316 faces (63.0% area) of pressure-outlet 25.

  iter  continuity  x-velocity  y-velocity  z-velocity           k     epsilon     time/iter
   496  6.6439e-01  1.8313e-03  1.7851e-03  2.1786e-03  2.6959e-03  4.0008e-03  0:00:06    4

 turbulent viscosity limited to viscosity ratio of 1.000000e+05 in 11 cells 

 Reversed flow on 52 faces (10.2% area) of pressure-outlet 22.

 Reversed flow on 2756 faces (70.4% area) of pressure-outlet 24.

 Reversed flow on 1322 faces (63.3% area) of pressure-outlet 25.
   497  6.5959e-01  1.7970e-03  1.7621e-03  2.1623e-03  2.6241e-03  3.9332e-03  0:00:04    3

 turbulent viscosity limited to viscosity ratio of 1.000000e+05 in 14 cells 

 Reversed flow on 51 faces (10.0% area) of pressure-outlet 22.

 Reversed flow on 2754 faces (70.3% area) of pressure-outlet 24.

 Reversed flow on 1322 faces (63.3% area) of pressure-outlet 25.
   498  6.5455e-01  1.7831e-03  1.7605e-03  2.1478e-03  2.5980e-03  3.8672e-03  0:00:03    2

 turbulent viscosity limited to viscosity ratio of 1.000000e+05 in 31 cells 

 Reversed flow on 52 faces (10.2% area) of pressure-outlet 22.

 Reversed flow on 2745 faces (70.0% area) of pressure-outlet 24.

 Reversed flow on 1319 faces (63.1% area) of pressure-outlet 25.
   499  6.5270e-01  1.7991e-03  1.7575e-03  2.1403e-03  2.6332e-03  3.9007e-03  0:00:01    1

 turbulent viscosity limited to viscosity ratio of 1.000000e+05 in 30 cells 

 Reversed flow on 54 faces (10.5% area) of pressure-outlet 22.

 Reversed flow on 2731 faces (69.7% area) of pressure-outlet 24.

 Reversed flow on 1325 faces (63.4% area) of pressure-outlet 25.
   500  6.5205e-01  1.8035e-03  1.7569e-03  2.1383e-03  2.6656e-03  3.8479e-03  0:00:00    0

> ;/solve/set/time-step 0.01
;solve/set/data-sampling y 1 y y
;/solve/dual-time-iterate 5000 10

adjoint/                file/                   report/
define/                 mesh/                   solve/
display/                parallel/               surface/
exit                    plot/                   views/

> ; set save
;no .h5 format

adjoint/                file/                   report/
define/                 mesh/                   solve/
display/                parallel/               surface/
exit                    plot/                   views/

> /file/cff-files? n

> ;/file/autosave/root-name "Me_317"
/file/write-case-data "E:\LGF\Sim\task\0826_1\P_85\FluentData_M100_-2300_85.cas"
Writing "E:\LGF\Sim\task\0826_1\P_85\FluentData_M100_-2300_85.cas"...

    6990 mixed cells, zone 15, binary.
  565192 mixed cells, zone 16, binary.
  128494 mixed cells, zone 17, binary.
   99631 mixed cells, zone 18, binary.
  112217 mixed cells, zone 19, binary.
    6990 cell partition ids, zone 15, 100 partitions, binary.
  565192 cell partition ids, zone 16, 100 partitions, binary.
  128494 cell partition ids, zone 17, 100 partitions, binary.
   99631 cell partition ids, zone 18, 100 partitions, binary.
  112217 cell partition ids, zone 19, 100 partitions, binary.
    3768 mixed wall faces, zone  1, binary.
   34998 triangular wall faces, zone  2, binary.
    6023 triangular wall faces, zone  3, binary.
   11483 triangular wall faces, zone  4, binary.
    5640 triangular wall faces, zone  5, binary.
    2602 triangular interior faces, zone  6, binary.
     310 quadrilateral interior faces, zone  7, binary.
    2662 mixed interior faces, zone  8, binary.
    2776 mixed interior faces, zone  9, binary.
   18821 mixed interior faces, zone 10, binary.
 1189685 mixed interior faces, zone 11, binary.
  263371 mixed interior faces, zone 12, binary.
  203749 mixed interior faces, zone 13, binary.
  217848 triangular interior faces, zone 14, binary.
     637 triangular pressure-outlet faces, zone 22, binary.
     100 quadrilateral velocity-inlet faces, zone 23, binary.
    4385 mixed pressure-outlet faces, zone 24, binary.
    2646 mixed pressure-outlet faces, zone 25, binary.
    1906 triangular velocity-inlet faces, zone 26, binary.
    4293 triangular wall faces, zone 27, binary.
    4279 triangular wall faces, zone 28, binary.
  252813 nodes, binary.
  252813 node flags, binary.
Done.


Writing "E:\LGF\Sim\task\0826_1\P_85\FluentData_M100_-2300_85.dat"...

Done.



> ;/display/save-picture "E:\LGF\Sim\task\0826_1\P_85\FluentData_M100_-2300_85jpg"
/exit/c