
              Welcome to ANSYS Fluent 2020 R1

              Copyright 1987-2020 ANSYS, Inc. All Rights Reserved.
              Unauthorized use, distribution or duplication is prohibited.
              This product is subject to U.S. laws governing export and re-export.
              For full Legal Notice, see documentation.

Build Time: Dec  2 2019 14:15:26 EST  Build Id: 10114  
 
Host spawning Node 0 on machine "DESKTOP-8RUTNJQ" (win64).
WARNING: No cached password or password provided.
         use '-pass' or '-cache' to provide password
Host 0 -- ip 192.168.161.95 -- ranks 0 - 99

 host | 0
======|======
    0 : SHM

 Prot -  All Intra-node communication is: SHM


-------------------------------------------------------------------------------
ID    Hostname         Core     O.S.         PID     Vendor        
-------------------------------------------------------------------------------
n99   DESKTOP-8RUTNJQ  100/128  Windows-x64  170312  AMD EPYC 7702 
n98   DESKTOP-8RUTNJQ  99/128   Windows-x64  37356   AMD EPYC 7702 
n97   DESKTOP-8RUTNJQ  98/128   Windows-x64  119720  AMD EPYC 7702 
n96   DESKTOP-8RUTNJQ  97/128   Windows-x64  37980   AMD EPYC 7702 
n95   DESKTOP-8RUTNJQ  96/128   Windows-x64  36748   AMD EPYC 7702 
n94   DESKTOP-8RUTNJQ  95/128   Windows-x64  39084   AMD EPYC 7702 
n93   DESKTOP-8RUTNJQ  94/128   Windows-x64  4232    AMD EPYC 7702 
n92   DESKTOP-8RUTNJQ  93/128   Windows-x64  194920  AMD EPYC 7702 
n91   DESKTOP-8RUTNJQ  92/128   Windows-x64  14436   AMD EPYC 7702 
n90   DESKTOP-8RUTNJQ  91/128   Windows-x64  39332   AMD EPYC 7702 
n89   DESKTOP-8RUTNJQ  90/128   Windows-x64  39680   AMD EPYC 7702 
n88   DESKTOP-8RUTNJQ  89/128   Windows-x64  187672  AMD EPYC 7702 
n87   DESKTOP-8RUTNJQ  88/128   Windows-x64  29724   AMD EPYC 7702 
n86   DESKTOP-8RUTNJQ  87/128   Windows-x64  5248    AMD EPYC 7702 
n85   DESKTOP-8RUTNJQ  86/128   Windows-x64  38084   AMD EPYC 7702 
n84   DESKTOP-8RUTNJQ  85/128   Windows-x64  32040   AMD EPYC 7702 
n83   DESKTOP-8RUTNJQ  84/128   Windows-x64  36692   AMD EPYC 7702 
n82   DESKTOP-8RUTNJQ  83/128   Windows-x64  5992    AMD EPYC 7702 
n81   DESKTOP-8RUTNJQ  82/128   Windows-x64  29372   AMD EPYC 7702 
n80   DESKTOP-8RUTNJQ  81/128   Windows-x64  7956    AMD EPYC 7702 
-------------------------------------------------------------------------------
ID    Hostname         Core     O.S.         PID     Vendor        
-------------------------------------------------------------------------------
n79   DESKTOP-8RUTNJQ  80/128   Windows-x64  199264  AMD EPYC 7702 
n78   DESKTOP-8RUTNJQ  79/128   Windows-x64  37376   AMD EPYC 7702 
n77   DESKTOP-8RUTNJQ  78/128   Windows-x64  191940  AMD EPYC 7702 
n76   DESKTOP-8RUTNJQ  77/128   Windows-x64  35216   AMD EPYC 7702 
n75   DESKTOP-8RUTNJQ  76/128   Windows-x64  38848   AMD EPYC 7702 
n74   DESKTOP-8RUTNJQ  75/128   Windows-x64  196032  AMD EPYC 7702 
n73   DESKTOP-8RUTNJQ  74/128   Windows-x64  181368  AMD EPYC 7702 
n72   DESKTOP-8RUTNJQ  73/128   Windows-x64  41788   AMD EPYC 7702 
n71   DESKTOP-8RUTNJQ  72/128   Windows-x64  37552   AMD EPYC 7702 
n70   DESKTOP-8RUTNJQ  71/128   Windows-x64  12460   AMD EPYC 7702 
n69   DESKTOP-8RUTNJQ  70/128   Windows-x64  35104   AMD EPYC 7702 
n68   DESKTOP-8RUTNJQ  69/128   Windows-x64  37344   AMD EPYC 7702 
n67   DESKTOP-8RUTNJQ  68/128   Windows-x64  29408   AMD EPYC 7702 
n66   DESKTOP-8RUTNJQ  67/128   Windows-x64  28264   AMD EPYC 7702 
n65   DESKTOP-8RUTNJQ  66/128   Windows-x64  183700  AMD EPYC 7702 
n64   DESKTOP-8RUTNJQ  65/128   Windows-x64  21520   AMD EPYC 7702 
n63   DESKTOP-8RUTNJQ  64/128   Windows-x64  168184  AMD EPYC 7702 
n62   DESKTOP-8RUTNJQ  63/128   Windows-x64  190460  AMD EPYC 7702 
n61   DESKTOP-8RUTNJQ  62/128   Windows-x64  39756   AMD EPYC 7702 
n60   DESKTOP-8RUTNJQ  61/128   Windows-x64  39032   AMD EPYC 7702 
-------------------------------------------------------------------------------
ID    Hostname         Core     O.S.         PID     Vendor        
-------------------------------------------------------------------------------
n59   DESKTOP-8RUTNJQ  60/128   Windows-x64  34648   AMD EPYC 7702 
n58   DESKTOP-8RUTNJQ  59/128   Windows-x64  36724   AMD EPYC 7702 
n57   DESKTOP-8RUTNJQ  58/128   Windows-x64  197064  AMD EPYC 7702 
n56   DESKTOP-8RUTNJQ  57/128   Windows-x64  192380  AMD EPYC 7702 
n55   DESKTOP-8RUTNJQ  56/128   Windows-x64  197820  AMD EPYC 7702 
n54   DESKTOP-8RUTNJQ  55/128   Windows-x64  36064   AMD EPYC 7702 
n53   DESKTOP-8RUTNJQ  54/128   Windows-x64  19628   AMD EPYC 7702 
n52   DESKTOP-8RUTNJQ  53/128   Windows-x64  37348   AMD EPYC 7702 
n51   DESKTOP-8RUTNJQ  52/128   Windows-x64  38976   AMD EPYC 7702 
n50   DESKTOP-8RUTNJQ  51/128   Windows-x64  37140   AMD EPYC 7702 
n49   DESKTOP-8RUTNJQ  50/128   Windows-x64  23972   AMD EPYC 7702 
n48   DESKTOP-8RUTNJQ  49/128   Windows-x64  150808  AMD EPYC 7702 
n47   DESKTOP-8RUTNJQ  48/128   Windows-x64  30876   AMD EPYC 7702 
n46   DESKTOP-8RUTNJQ  47/128   Windows-x64  33300   AMD EPYC 7702 
n45   DESKTOP-8RUTNJQ  46/128   Windows-x64  165484  AMD EPYC 7702 
n44   DESKTOP-8RUTNJQ  45/128   Windows-x64  25312   AMD EPYC 7702 
n43   DESKTOP-8RUTNJQ  44/128   Windows-x64  28972   AMD EPYC 7702 
n42   DESKTOP-8RUTNJQ  43/128   Windows-x64  175136  AMD EPYC 7702 
n41   DESKTOP-8RUTNJQ  42/128   Windows-x64  20100   AMD EPYC 7702 
n40   DESKTOP-8RUTNJQ  41/128   Windows-x64  38300   AMD EPYC 7702 
-------------------------------------------------------------------------------
ID    Hostname         Core     O.S.         PID     Vendor        
-------------------------------------------------------------------------------
n39   DESKTOP-8RUTNJQ  40/128   Windows-x64  22040   AMD EPYC 7702 
n38   DESKTOP-8RUTNJQ  39/128   Windows-x64  32268   AMD EPYC 7702 
n37   DESKTOP-8RUTNJQ  38/128   Windows-x64  28792   AMD EPYC 7702 
n36   DESKTOP-8RUTNJQ  37/128   Windows-x64  10868   AMD EPYC 7702 
n35   DESKTOP-8RUTNJQ  36/128   Windows-x64  172068  AMD EPYC 7702 
n34   DESKTOP-8RUTNJQ  35/128   Windows-x64  30804   AMD EPYC 7702 
n33   DESKTOP-8RUTNJQ  34/128   Windows-x64  39232   AMD EPYC 7702 
n32   DESKTOP-8RUTNJQ  33/128   Windows-x64  31632   AMD EPYC 7702 
n31   DESKTOP-8RUTNJQ  32/128   Windows-x64  189000  AMD EPYC 7702 
n30   DESKTOP-8RUTNJQ  31/128   Windows-x64  145468  AMD EPYC 7702 
n29   DESKTOP-8RUTNJQ  30/128   Windows-x64  34808   AMD EPYC 7702 
n28   DESKTOP-8RUTNJQ  29/128   Windows-x64  29256   AMD EPYC 7702 
n27   DESKTOP-8RUTNJQ  28/128   Windows-x64  35832   AMD EPYC 7702 
n26   DESKTOP-8RUTNJQ  27/128   Windows-x64  185800  AMD EPYC 7702 
n25   DESKTOP-8RUTNJQ  26/128   Windows-x64  198980  AMD EPYC 7702 
n24   DESKTOP-8RUTNJQ  25/128   Windows-x64  180068  AMD EPYC 7702 
n23   DESKTOP-8RUTNJQ  24/128   Windows-x64  182404  AMD EPYC 7702 
n22   DESKTOP-8RUTNJQ  23/128   Windows-x64  175140  AMD EPYC 7702 
n21   DESKTOP-8RUTNJQ  22/128   Windows-x64  195512  AMD EPYC 7702 
n20   DESKTOP-8RUTNJQ  21/128   Windows-x64  195808  AMD EPYC 7702 
-------------------------------------------------------------------------------
ID    Hostname         Core     O.S.         PID     Vendor        
-------------------------------------------------------------------------------
n19   DESKTOP-8RUTNJQ  20/128   Windows-x64  15124   AMD EPYC 7702 
n18   DESKTOP-8RUTNJQ  19/128   Windows-x64  195516  AMD EPYC 7702 
n17   DESKTOP-8RUTNJQ  18/128   Windows-x64  29344   AMD EPYC 7702 
n16   DESKTOP-8RUTNJQ  17/128   Windows-x64  5476    AMD EPYC 7702 
n15   DESKTOP-8RUTNJQ  16/128   Windows-x64  199088  AMD EPYC 7702 
n14   DESKTOP-8RUTNJQ  15/128   Windows-x64  29736   AMD EPYC 7702 
n13   DESKTOP-8RUTNJQ  14/128   Windows-x64  171208  AMD EPYC 7702 
n12   DESKTOP-8RUTNJQ  13/128   Windows-x64  26096   AMD EPYC 7702 
n11   DESKTOP-8RUTNJQ  12/128   Windows-x64  29648   AMD EPYC 7702 
n10   DESKTOP-8RUTNJQ  11/128   Windows-x64  187196  AMD EPYC 7702 
n9    DESKTOP-8RUTNJQ  10/128   Windows-x64  38352   AMD EPYC 7702 
n8    DESKTOP-8RUTNJQ  9/128    Windows-x64  189068  AMD EPYC 7702 
n7    DESKTOP-8RUTNJQ  8/128    Windows-x64  195656  AMD EPYC 7702 
n6    DESKTOP-8RUTNJQ  7/128    Windows-x64  198220  AMD EPYC 7702 
n5    DESKTOP-8RUTNJQ  6/128    Windows-x64  195676  AMD EPYC 7702 
n4    DESKTOP-8RUTNJQ  5/128    Windows-x64  191916  AMD EPYC 7702 
n3    DESKTOP-8RUTNJQ  4/128    Windows-x64  35004   AMD EPYC 7702 
n2    DESKTOP-8RUTNJQ  3/128    Windows-x64  5260    AMD EPYC 7702 
n1    DESKTOP-8RUTNJQ  2/128    Windows-x64  39648   AMD EPYC 7702 
n0*   DESKTOP-8RUTNJQ  1/128    Windows-x64  53428   AMD EPYC 7702 
host  DESKTOP-8RUTNJQ           Windows-x64  190480  AMD EPYC 7702 

MPI Option Selected: ibmmpi
Selected system interconnect: default
-------------------------------------------------------------------------------



Cleanup script file is E:\LGF\Sim\Script\\cleanup-fluent-DESKTOP-8RUTNJQ-31224.bat

Reading journal file E:\LGF\Sim\task\0826_1\P_85\J_M100_85_-3200.jou...

> ;Read case
/file/read-case E:\LGF\Sim\basic_Mesh\Model_100.msh

37: Affinity not set!

53: Affinity not set!

1: Affinity not set!

9: Affinity not set!

47: Affinity not set!

17: Affinity not set!

99: Affinity not set!

39: Affinity not set!

77: Affinity not set!

89: Affinity not set!

11: Affinity not set!

44: Affinity not set!

61: Affinity not set!

5: Affinity not set!

13: Affinity not set!

69: Affinity not set!

71: Affinity not set!

19: Affinity not set!

31: Affinity not set!

51: Affinity not set!

2: Affinity not set!

41: Affinity not set!

59: Affinity not set!

16: Affinity not set!

57: Affinity not set!

97: Affinity not set!

85: Affinity not set!

83: Affinity not set!

45: Affinity not set!

15: Affinity not set!

79: Affinity not set!

23: Affinity not set!

81: Affinity not set!

27: Affinity not set!

4: Affinity not set!

25: Affinity not set!

38: Affinity not set!

43: Affinity not set!

67: Affinity not set!

86: Affinity not set!

93: Affinity not set!

12: Affinity not set!

30: Affinity not set!

36: Affinity not set!

52: Affinity not set!

64: Affinity not set!

70: Affinity not set!

82: Affinity not set!

84: Affinity not set!

0: Affinity not set!

6: Affinity not set!

49: Affinity not set!

62: Affinity not set!

65: Affinity not set!

68: Affinity not set!

74: Affinity not set!

76: Affinity not set!

87: Affinity not set!

54: Affinity not set!

28: Affinity not set!

66: Affinity not set!

56: Affinity not set!

90: Affinity not set!

26: Affinity not set!

88: Affinity not set!

24: Affinity not set!

80: Affinity not set!

58: Affinity not set!

72: Affinity not set!

50: Affinity not set!

78: Affinity not set!

Reading "E:\LGF\Sim\basic_Mesh\Model_100.msh"...

Buffering for file scan...

  209972 nodes, binary.
   42841 nodes, binary.
    3768 mixed wall faces, zone  1, binary.
   34998 triangular wall faces, zone  2, binary.
    6023 triangular wall faces, zone  3, binary.
   11483 triangular wall faces, zone  4, binary.
    5640 triangular wall faces, zone  5, binary.
    2602 triangular interior faces, zone  6, binary.
     310 quadrilateral interior faces, zone  7, binary.
    2662 mixed interior faces, zone  8, binary.
    2776 mixed interior faces, zone  9, binary.
   18821 mixed interior faces, zone 10, binary.
 1189685 mixed interior faces, zone 11, binary.
  263371 mixed interior faces, zone 12, binary.
  203749 mixed interior faces, zone 13, binary.
  217848 triangular interior faces, zone 14, binary.
     637 triangular wall faces, zone 22, binary.
     100 quadrilateral wall faces, zone 23, binary.
    4385 mixed wall faces, zone 24, binary.
    2646 mixed wall faces, zone 25, binary.
    1906 triangular wall faces, zone 26, binary.
    4293 triangular wall faces, zone 27, binary.
    4279 triangular wall faces, zone 28, binary.
    6990 mixed cells, zone 15, binary.
  565192 mixed cells, zone 16, binary.
  128494 mixed cells, zone 17, binary.
   99631 mixed cells, zone 18, binary.
  112217 mixed cells, zone 19, binary.

Building...
     mesh
	auto partitioning mesh by Metis (fast),
	distributing mesh
		parts..................................................,
		faces..................................................,
		nodes..................................................,
		cells..................................................,
        bandwidth reduction using Reverse Cuthill-McKee: 9508/523 = 18.1797
     materials,
     interface,
     domains,
     zones,
	wall_tx_xi
	wall_xi_tx
	i2
	p2
	p1
	i1
	o1
	towparts-xi_zhui
	towparts-tc_tc
	towparts-tx_tx
	towparts-block_block
	towparts-xi_huan
	interior-towparts-xi_zhui
	interior-towparts-tc_tc
	interior-towparts-tx_tx
	interior-towparts-block_block
	interior-towparts-xi_huan
	interior-towparts-block_block-towparts-tc_tc
	interior-towparts-block_block-towparts-tx_tx
	interior-towparts-xi_huan-towparts-xi_zhui
	interior-towparts-block_block-towparts-xi_zhui
	wall-towparts-xi_zhui
	wall-towparts-tc_tc
	wall-towparts-tx_tx
	wall-towparts-block_block
	wall-towparts-xi_huan
     parallel,
Done.

> 
adjoint/                file/                   report/
define/                 mesh/                   solve/
display/                parallel/               surface/
exit                    plot/                   views/

> ; set save
;;/file/auto-save/data-frequency 2000
;;/file/auto-save/case-frequency each-time
;;/file/autosave/root-name "30du.msh.gz"

adjoint/                file/                   report/
define/                 mesh/                   solve/
display/                parallel/               surface/
exit                    plot/                   views/

> ;delete mesh interface
;/define/mesh-interface/delete contact_region

adjoint/                file/                   report/
define/                 mesh/                   solve/
display/                parallel/               surface/
exit                    plot/                   views/

> ;/define/operating-conditions/gravity/ y 0 -9.8 6

adjoint/                file/                   report/
define/                 mesh/                   solve/
display/                parallel/               surface/
exit                    plot/                   views/

> ;scale
;;/mesh/scale 0.125 0.125 0.125

adjoint/                file/                   report/
define/                 mesh/                   solve/
display/                parallel/               surface/
exit                    plot/                   views/

> ;general

adjoint/                file/                   report/
define/                 mesh/                   solve/
display/                parallel/               surface/
exit                    plot/                   views/

> /define/operating-conditions? invalid command [operating-conditions?]
y 0.0 -9.8 0.0

> 
adjoint/                file/                   report/
define/                 mesh/                   solve/
display/                parallel/               surface/
exit                    plot/                   views/

> /define/models steady? Steady solution model is already enabled.
y
invalid command [y]

> ;/define/models unsteady-1st-order? y

adjoint/                file/                   report/
define/                 mesh/                   solve/
display/                parallel/               surface/
exit                    plot/                   views/

> 
adjoint/                file/                   report/
define/                 mesh/                   solve/
display/                parallel/               surface/
exit                    plot/                   views/

> ;define viscous model

adjoint/                file/                   report/
define/                 mesh/                   solve/
display/                parallel/               surface/
exit                    plot/                   views/

> /define/models/viscous/ke-rng? y   ;;swirl?
/define/models/viscous/rng-swirl-model? yes

> 
adjoint/                file/                   report/
define/                 mesh/                   solve/
display/                parallel/               surface/
exit                    plot/                   views/

> 
adjoint/                file/                   report/
define/                 mesh/                   solve/
display/                parallel/               surface/
exit                    plot/                   views/

> ;/define/models/viscous/ke-rng-swirl-model? y
;/define/models/viscous/ke-rng/rng-swirl-model? y

adjoint/                file/                   report/
define/                 mesh/                   solve/
display/                parallel/               surface/
exit                    plot/                   views/

> 
adjoint/                file/                   report/
define/                 mesh/                   solve/
display/                parallel/               surface/
exit                    plot/                   views/

> ;/define/models/viscous/ke-realizable? y            

adjoint/                file/                   report/
define/                 mesh/                   solve/
display/                parallel/               surface/
exit                    plot/                   views/

> 
adjoint/                file/                   report/
define/                 mesh/                   solve/
display/                parallel/               surface/
exit                    plot/                   views/

> ; modify boundary-condition types

adjoint/                file/                   report/
define/                 mesh/                   solve/
display/                parallel/               surface/
exit                    plot/                   views/

> ;/define/boundary-conditions/zone-type contact_region-src wall
;/define/boundary-conditions/zone-type contact_region-trg wall
/define/boundary-conditions/zone-type i1 velocity-inlet

> /define/boundary-conditions/zone-type i2 velocity-inlet

> 
adjoint/                file/                   report/
define/                 mesh/                   solve/
display/                parallel/               surface/
exit                    plot/                   views/

> /define/boundary-conditions/zone-type o1 pressure-outlet

> /define/boundary-conditions/zone-type p1 pressure-outlet

> /define/boundary-conditions/zone-type p2 pressure-outlet

> 
adjoint/                file/                   report/
define/                 mesh/                   solve/
display/                parallel/               surface/
exit                    plot/                   views/

> ;set inlet boundary-conditions
/define/boundary-conditions/velocity-inlet (i2 i1)
i2  n n y y n 10 n 0 n n y 5 10

> /define/boundary-conditions/velocity-inlet (i2 i1)
i1  n n y y n 85 n 0 n n y 5 10

> /define/boundary-conditions/pressure-outlet (p2 p1 o1)
o1  y n -3200 n y n n y 5 10 y n n n

> /define/boundary-conditions/pressure-outlet (p2 p1 o1)
p1  y n 0 n y n n y 5 10 y n n n 

> /define/boundary-conditions/pressure-outlet (p2 p1 o1)
p2  y n 0 n y n n y 5 10 y n n n 

> 
adjoint/                file/                   report/
define/                 mesh/                   solve/
display/                parallel/               surface/
exit                    plot/                   views/

> ;;;;n y y n 0 y n 51.96 n 30 n 0 y n 1 n 1
;/define/boundary-conditions/copy-bc inlet front ()
;/define/boundary-conditions/wall lj y motion-bc-moving n n n n 11.11 1 0 0 n n 0 n 0.5

adjoint/                file/                   report/
define/                 mesh/                   solve/
display/                parallel/               surface/
exit                    plot/                   views/

> ; set solution controls
;/solve/set/p-v-coupling 21
;20: SIMPLE
;21: SIMPLEC
;22: PISO
;24: coupled
;/solve/set/under-relaxation pressure 0.5
;/solve/set/under-relaxation density 0.8
;/solve/set/under-relaxation body-force  0.8
;/solve/set/under-relaxation mom 0.5
;/solve/set/under-relaxation turb-viscosity 0.6
;/solve/set/under-relaxation k 0.6
;/solve/set/under-relaxation epsilon 0.6
;/solve/set/under-relaxation body-force 0.8 turb-viscosity 0.8 density 0.8
;/solve/set/discretization-scheme pressure 10 mom 1 k 1 epsilon 1

adjoint/                file/                   report/
define/                 mesh/                   solve/
display/                parallel/               surface/
exit                    plot/                   views/

> ;set pressure
;10:standard
;11:linear
;12:second order
;13:body force weighted
;14:presto!

adjoint/                file/                   report/
define/                 mesh/                   solve/
display/                parallel/               surface/
exit                    plot/                   views/

> ;set mom
;0:firdst order upwind
;1:second order upwind
;2:power law
;4:quick
;6:third-order muscl

adjoint/                file/                   report/
define/                 mesh/                   solve/
display/                parallel/               surface/
exit                    plot/                   views/

> ;set k
;0:firdst order upwind
;1:second order upwind
;2:power law
;4:quick
;6:third-order muscl

adjoint/                file/                   report/
define/                 mesh/                   solve/
display/                parallel/               surface/
exit                    plot/                   views/

> ;set epdst order upwind
;1:second order upwind
;2:power law
;4:silon
;0:firquick
;6:third-order muscl
;;;;;;;;;;;;;;;;;;;;;;;;;;;;;;;
;;;;;;;;;;;;;;;;;;;;;;;;;;;;;;set monitor point line surface
;;;;;;;;;;;;;;;;;;;;;;;;;;;;;;
/surface/point-surface/ cirPoint1 1.8 2 7

> /surface/point-surface/ cirPoint2 1.5 2 7

> /surface/point-surface/ cirPoint3 1 2 7

> /surface/point-surface/ cirPoint4 0 2 7

> /surface/point-surface/ cirPoint1_synYZ -1.8 2 7

> /surface/point-surface/ cirPoint2_synYZ -1.5 2 7

> /surface/point-surface/ cirPoint3_synYZ -1 2 7

> /surface/point-surface/ cirPoint1_synO -1.8 -2 7

> /surface/point-surface/ cirPoint2_synO -1.5 -2 7

> /surface/point-surface/ cirPoint3_synO -1 -2 7

> 
adjoint/                file/                   report/
define/                 mesh/                   solve/
display/                parallel/               surface/
exit                    plot/                   views/

> /surface/line-surface/ line_1 0 0 2 0 0 7

> 
adjoint/                file/                   report/
define/                 mesh/                   solve/
display/                parallel/               surface/
exit                    plot/                   views/

> /surface/line-surface/ line_2 1 2 2 1 2 7

> /surface/line-surface/ line_2_synYZ -1 2 2 -1 2 7

> 
adjoint/                file/                   report/
define/                 mesh/                   solve/
display/                parallel/               surface/
exit                    plot/                   views/

> /surface/line-surface/ line_3 1.5 2 2 1.5 2 7

> /surface/line-surface/ line_3_synYZ -1.5 2 2 -1.5 2 7

> 
adjoint/                file/                   report/
define/                 mesh/                   solve/
display/                parallel/               surface/
exit                    plot/                   views/

> 
adjoint/                file/                   report/
define/                 mesh/                   solve/
display/                parallel/               surface/
exit                    plot/                   views/

> 
adjoint/                file/                   report/
define/                 mesh/                   solve/
display/                parallel/               surface/
exit                    plot/                   views/

> 
adjoint/                file/                   report/
define/                 mesh/                   solve/
display/                parallel/               surface/
exit                    plot/                   views/

> 
adjoint/                file/                   report/
define/                 mesh/                   solve/
display/                parallel/               surface/
exit                    plot/                   views/

> /surface/plane-slice/ YuanPian_0_0_3 0 0 1 3

> /surface/plane-slice/ YuanPian_0_0_4 0 0 1 4

> /surface/plane-slice/ YuanPian_0_0_5 0 0 1 5

> /surface/plane-slice/ YuanPian_0_0_6 0 0 1 6

> /surface/plane-slice/ YuanPian_0_0_7 0 0 1 7

> 
adjoint/                file/                   report/
define/                 mesh/                   solve/
display/                parallel/               surface/
exit                    plot/                   views/

> /surface/transform-surface/ 10 ()
Center Of Rotation
 0 0 0 
Angle of Rotation
0 0 0 
Translation Distance
0 0 0 0 xiKou 

> 
adjoint/                file/                   report/
define/                 mesh/                   solve/
display/                parallel/               surface/
exit                    plot/                   views/

> 
adjoint/                file/                   report/
define/                 mesh/                   solve/
display/                parallel/               surface/
exit                    plot/                   views/

> 
adjoint/                file/                   report/
define/                 mesh/                   solve/
display/                parallel/               surface/
exit                    plot/                   views/

> 
adjoint/                file/                   report/
define/                 mesh/                   solve/
display/                parallel/               surface/
exit                    plot/                   views/

> ;/solve/monitors/surface/set-monitor miao_V_huan_2 ? velocity-magnitude miao31 miao32 miao33 miao34 miao35 miao36   n n y miao_V_huan_2 100

adjoint/                file/                   report/
define/                 mesh/                   solve/
display/                parallel/               surface/
exit                    plot/                   views/

> 
adjoint/                file/                   report/
define/                 mesh/                   solve/
display/                parallel/               surface/
exit                    plot/                   views/

> /solve/monitors/surface/set-monitor cirPoint1  "Sum" velocity-magnitude cirPoint1 () n n y E:\LGF\Sim\task\0826_1\P_85\txtData\cirPoint1_-3200.txt 100
Information: Converting monitor cirpoint1 to report definition.

> /solve/monitors/surface/set-monitor cirPoint2  "Sum" velocity-magnitude cirPoint2 () n n y E:\LGF\Sim\task\0826_1\P_85\txtData\cirPoint2_-3200.txt 100
Information: Converting monitor cirpoint2 to report definition.

> /solve/monitors/surface/set-monitor cirPoint3  "Sum" velocity-magnitude cirPoint3 () n n y E:\LGF\Sim\task\0826_1\P_85\txtData\cirPoint3_-3200.txt 100
Information: Converting monitor cirpoint3 to report definition.

> /solve/monitors/surface/set-monitor cirPoint1-2  "Sum" velocity-magnitude cirPoint1 cirPoint2 () n n y E:\LGF\Sim\task\0826_1\P_85\txtData\cirPoint1-2_-3200.txt 100
Information: Converting monitor cirpoint1-2 to report definition.

> 
adjoint/                file/                   report/
define/                 mesh/                   solve/
display/                parallel/               surface/
exit                    plot/                   views/

> /solve/monitors/surface/set-monitor line_1   "Facet Average" velocity-magnitude line_1 () n n y E:\LGF\Sim\task\0826_1\P_85\txtData\line_1_-3200.txt 100
Information: Converting monitor line_1 to report definition.

> /solve/monitors/surface/set-monitor line_2   "Facet Average" velocity-magnitude line_2 () n n y E:\LGF\Sim\task\0826_1\P_85\txtData\line_2_-3200.txt 100
Information: Converting monitor line_2 to report definition.

> 
adjoint/                file/                   report/
define/                 mesh/                   solve/
display/                parallel/               surface/
exit                    plot/                   views/

> /solve/monitors/surface/set-monitor YuanPian_0_0_5   "Facet Average" velocity-magnitude YuanPian_0_0_5 () n n y E:\LGF\Sim\task\0826_1\P_85\txtData\YuanPian_0_0_5_-3200.txt 100
Information: Converting monitor yuanpian_0_0_5 to report definition.

> 
adjoint/                file/                   report/
define/                 mesh/                   solve/
display/                parallel/               surface/
exit                    plot/                   views/

> /solve/monitors/surface/set-monitor xiKou   "Facet Average" velocity-magnitude xiKou () n n y E:\LGF\Sim\task\0826_1\P_85\txtData\xiKou_-3200.txt 100
Information: Converting monitor xikou to report definition.

> 
adjoint/                file/                   report/
define/                 mesh/                   solve/
display/                parallel/               surface/
exit                    plot/                   views/

> ;/solve/monitors/surface/set-monitor miao_V_huan_4  "Sum" velocity-magnitude miao37 () n n y E:\LGF\Sim\task\0826_1\P_85\txtData\miao_V_huan_4_-3200.txt 100

adjoint/                file/                   report/
define/                 mesh/                   solve/
display/                parallel/               surface/
exit                    plot/                   views/

> ;set monitor residuals
/solve/monitors/residual/convergence-criteria 0.000001 0.000001 0.000001 0.000001 0.000001 0.000001

> 
adjoint/                file/                   report/
define/                 mesh/                   solve/
display/                parallel/               surface/
exit                    plot/                   views/

> ;set force monitors
;compile C
;/define/user-defined/compiled-functions/compile libudf yes FandMmonitor.c "" "" 
; load C
;/define/user-defined/compiled-functions/load libudf
;;    set hook
;/define/user-defined/function-hooks/execute-at-end "force_and_moment_print::libudf" "" 

adjoint/                file/                   report/
define/                 mesh/                   solve/
display/                parallel/               surface/
exit                    plot/                   views/

> ;/solve/monitors/force/set-drag-monitor cx y che1 zxj1 zxj2 che2 zxj3 zxj4 che3 zxj5 zxj6 () n y "cx-CRH380A" n y 1 0 0
;/solve/monitors/force/set-drag-monitor cy y che1 zxj1 zxj2 che2 zxj3 zxj4 che3 zxj5 zxj6 () n y "cy-1D-30" n y 0 1 0
;/solve/monitors/force/set-drag-monitor cz y che1 zxj1 zxj2 che2 zxj3 zxj4 che3 zxj5 zxj6 () n y "cz-CRH380A" n y 0 0 1

adjoint/                file/                   report/
define/                 mesh/                   solve/
display/                parallel/               surface/
exit                    plot/                   views/

> ;/solve/monitors/force/set-moment-monitor mx y che1 zxj1 zxj2 fd1 che2 zxj3 zxj4 fd2 che3 zxj5 zxj6 () n y "mx-1D-30" n y 0 0 0 1 0 0
;/solve/monitors/force/set-moment-monitor my y che1 zxj1 zxj2 fd1 che2 zxj3 zxj4 fd2 che3 zxj5 zxj6 () n y "my-1D-30" n y 0 0 0 0 1 0
;/solve/monitors/force/set-moment-monitor mz y che1 zxj1 zxj2 fd1 che2 zxj3 zxj4 fd2 che3 zxj5 zxj6 () n y "mz-1D-30" n y 0 0 0 0 0 1

adjoint/                file/                   report/
define/                 mesh/                   solve/
display/                parallel/               surface/
exit                    plot/                   views/

> 
adjoint/                file/                   report/
define/                 mesh/                   solve/
display/                parallel/               surface/
exit                    plot/                   views/

> ;init solve set
/solve/initialize/reference-frame Current Reference Frame : Relative to Cell Zoneabsolute

> /solve/initialize/initialize-flow

> ;solve/set/time-step 0.00005
/solve/iterate 500

  iter  continuity  x-velocity  y-velocity  z-velocity           k     epsilon     time/iter
     1  1.0000e+00  1.0570e+04  9.2552e+02  1.0876e+04  1.1609e+00  7.0585e+02  0:16:38  499

 turbulent viscosity limited to viscosity ratio of 1.000000e+05 in 1 cells 

 Reversed flow on 4385 faces (100.0% area) of pressure-outlet 24.
     2  6.1154e-01  1.2459e-02  9.2374e-03  2.4975e-02  2.1764e-01  9.8342e-01  0:18:16  498

 Reversed flow on 15 faces (2.6% area) of pressure-outlet 22.

 Reversed flow on 3057 faces (65.4% area) of pressure-outlet 24.
     3  7.2742e-01  2.7889e-02  2.4206e-02  2.2501e-02  2.3289e-01  7.3645e-01  0:17:54  497

 Reversed flow on 14 faces (2.6% area) of pressure-outlet 22.

 Reversed flow on 2246 faces (47.7% area) of pressure-outlet 24.

 Reversed flow on 1149 faces (34.9% area) of pressure-outlet 25.
     4  5.8623e-01  1.2955e-02  1.2182e-02  1.5845e-02  1.1442e-01  6.0288e-01  0:15:56  496

 Reversed flow on 14 faces (2.6% area) of pressure-outlet 22.

 Reversed flow on 2509 faces (51.7% area) of pressure-outlet 24.

 Reversed flow on 575 faces (9.3% area) of pressure-outlet 25.
     5  5.3699e-01  1.1919e-02  1.0809e-02  8.5487e-03  5.1446e-02  3.8663e-01  0:16:01  495

 Reversed flow on 4 faces (0.9% area) of pressure-outlet 22.

 Reversed flow on 2974 faces (64.1% area) of pressure-outlet 24.

 Reversed flow on 1314 faces (40.0% area) of pressure-outlet 25.
     6  5.0875e-01  9.3936e-03  8.4921e-03  7.3824e-03  2.8605e-02  2.3909e-01  0:16:05  494

 Reversed flow on 2035 faces (47.2% area) of pressure-outlet 24.

 Reversed flow on 1458 faces (45.9% area) of pressure-outlet 25.
     7  4.7715e-01  7.3188e-03  6.5033e-03  4.9802e-03  2.0020e-02  9.1100e-02  0:14:29  493

 Reversed flow on 1805 faces (44.9% area) of pressure-outlet 24.

 Reversed flow on 1605 faces (52.4% area) of pressure-outlet 25.
     8  4.4700e-01  6.5243e-03  5.9518e-03  4.5925e-03  1.8438e-02  1.2193e-01  0:13:12  492

 Reversed flow on 1722 faces (42.7% area) of pressure-outlet 24.

 Reversed flow on 1587 faces (51.1% area) of pressure-outlet 25.
     9  4.1749e-01  5.5098e-03  5.0832e-03  3.7228e-03  1.6386e-02  1.0802e-01  0:13:49  491

 turbulent viscosity limited to viscosity ratio of 1.000000e+05 in 9565 cells 

 Reversed flow on 1783 faces (42.8% area) of pressure-outlet 24.

 Reversed flow on 1647 faces (54.0% area) of pressure-outlet 25.
    10  3.9140e-01  4.8257e-03  4.5182e-03  3.5836e-03  1.2907e-02  8.2553e-02  0:14:18  490

 turbulent viscosity limited to viscosity ratio of 1.000000e+05 in 3425 cells 

 Reversed flow on 1801 faces (42.9% area) of pressure-outlet 24.

 Reversed flow on 1189 faces (47.0% area) of pressure-outlet 25.
    11  3.6250e-01  4.2360e-03  4.0224e-03  3.4965e-03  1.1571e-02  6.5434e-02  0:16:18  489

 turbulent viscosity limited to viscosity ratio of 1.000000e+05 in 616 cells 

 Reversed flow on 1868 faces (44.4% area) of pressure-outlet 24.

 Reversed flow on 971 faces (46.8% area) of pressure-outlet 25.

  iter  continuity  x-velocity  y-velocity  z-velocity           k     epsilon     time/iter
    12  3.4173e-01  3.9557e-03  3.7482e-03  3.4604e-03  1.2430e-02  4.8356e-02  0:14:39  488

 turbulent viscosity limited to viscosity ratio of 1.000000e+05 in 1381 cells 

 Reversed flow on 1958 faces (47.0% area) of pressure-outlet 24.

 Reversed flow on 1120 faces (53.7% area) of pressure-outlet 25.
    13  3.2187e-01  3.8236e-03  3.5733e-03  3.3938e-03  1.7770e-02  4.2714e-02  0:14:56  487

 turbulent viscosity limited to viscosity ratio of 1.000000e+05 in 2244 cells 

 Reversed flow on 2090 faces (50.4% area) of pressure-outlet 24.

 Reversed flow on 1233 faces (59.3% area) of pressure-outlet 25.
    14  3.0690e-01  3.8065e-03  3.5036e-03  3.4806e-03  2.2455e-02  4.5316e-02  0:16:47  486

 turbulent viscosity limited to viscosity ratio of 1.000000e+05 in 3356 cells 

 Reversed flow on 2221 faces (53.7% area) of pressure-outlet 24.

 Reversed flow on 1256 faces (60.6% area) of pressure-outlet 25.
    15  2.9820e-01  3.8040e-03  3.4990e-03  3.5821e-03  2.1913e-02  4.2589e-02  0:15:01  485

 turbulent viscosity limited to viscosity ratio of 1.000000e+05 in 4684 cells 

 Reversed flow on 2383 faces (57.9% area) of pressure-outlet 24.

 Reversed flow on 1145 faces (55.9% area) of pressure-outlet 25.
    16  2.9521e-01  3.8641e-03  3.5301e-03  3.7196e-03  1.9267e-02  3.8209e-02  0:16:50  484

 turbulent viscosity limited to viscosity ratio of 1.000000e+05 in 12602 cells 

 Reversed flow on 2492 faces (60.3% area) of pressure-outlet 24.

 Reversed flow on 1083 faces (52.8% area) of pressure-outlet 25.
    17  2.9920e-01  3.9531e-03  3.6025e-03  3.7834e-03  1.6962e-02  3.2741e-02  0:16:39  483

 turbulent viscosity limited to viscosity ratio of 1.000000e+05 in 14013 cells 

 Reversed flow on 2739 faces (65.6% area) of pressure-outlet 24.

 Reversed flow on 1144 faces (55.7% area) of pressure-outlet 25.
    18  3.0652e-01  3.9259e-03  3.7217e-03  3.8047e-03  1.4491e-02  2.6837e-02  0:16:31  482

 turbulent viscosity limited to viscosity ratio of 1.000000e+05 in 9417 cells 

 Reversed flow on 3306 faces (76.4% area) of pressure-outlet 24.

 Reversed flow on 1169 faces (56.9% area) of pressure-outlet 25.
    19  3.2040e-01  3.7319e-03  3.6910e-03  3.8634e-03  1.2740e-02  2.5747e-02  0:17:59  481

 turbulent viscosity limited to viscosity ratio of 1.000000e+05 in 3209 cells 

 Reversed flow on 3750 faces (86.0% area) of pressure-outlet 24.

 Reversed flow on 1207 faces (58.5% area) of pressure-outlet 25.
    20  3.3122e-01  3.5355e-03  3.5586e-03  3.9209e-03  1.2312e-02  2.6929e-02  0:15:58  480

 turbulent viscosity limited to viscosity ratio of 1.000000e+05 in 718 cells 

 Reversed flow on 3862 faces (88.4% area) of pressure-outlet 24.

 Reversed flow on 1195 faces (57.9% area) of pressure-outlet 25.
    21  3.4235e-01  3.4260e-03  3.3622e-03  3.8603e-03  1.1697e-02  2.7064e-02  0:15:56  479

 turbulent viscosity limited to viscosity ratio of 1.000000e+05 in 2417 cells 

 Reversed flow on 4304 faces (97.8% area) of pressure-outlet 24.

 Reversed flow on 1176 faces (56.9% area) of pressure-outlet 25.
    22  3.4215e-01  3.2335e-03  3.1038e-03  3.6904e-03  1.0919e-02  2.6136e-02  0:15:55  478

 turbulent viscosity limited to viscosity ratio of 1.000000e+05 in 985 cells 

 Reversed flow on 4357 faces (99.2% area) of pressure-outlet 24.

 Reversed flow on 1160 faces (56.0% area) of pressure-outlet 25.

  iter  continuity  x-velocity  y-velocity  z-velocity           k     epsilon     time/iter
    23  3.4177e-01  3.0479e-03  2.9211e-03  3.4808e-03  1.0332e-02  2.4151e-02  0:15:53  477

 turbulent viscosity limited to viscosity ratio of 1.000000e+05 in 59 cells 

 Reversed flow on 4373 faces (99.7% area) of pressure-outlet 24.

 Reversed flow on 1145 faces (55.3% area) of pressure-outlet 25.
    24  3.3811e-01  2.8377e-03  2.7289e-03  3.2208e-03  9.2159e-03  2.1580e-02  0:15:51  476

 turbulent viscosity limited to viscosity ratio of 1.000000e+05 in 178 cells 

 Reversed flow on 4358 faces (99.3% area) of pressure-outlet 24.

 Reversed flow on 1143 faces (55.2% area) of pressure-outlet 25.
    25  3.3320e-01  2.6190e-03  2.5366e-03  2.9934e-03  8.1387e-03  2.0098e-02  0:14:14  475

 turbulent viscosity limited to viscosity ratio of 1.000000e+05 in 10 cells 

 Reversed flow on 4344 faces (98.9% area) of pressure-outlet 24.

 Reversed flow on 1162 faces (56.0% area) of pressure-outlet 25.
    26  3.2514e-01  2.4337e-03  2.3757e-03  2.8011e-03  7.1775e-03  1.8597e-02  0:14:32  474

 Reversed flow on 4359 faces (99.3% area) of pressure-outlet 24.

 Reversed flow on 1203 faces (58.0% area) of pressure-outlet 25.
    27  3.1153e-01  2.2201e-03  2.1900e-03  2.5616e-03  6.4627e-03  1.7436e-02  0:14:45  473

 Reversed flow on 4371 faces (99.6% area) of pressure-outlet 24.

 Reversed flow on 1215 faces (58.5% area) of pressure-outlet 25.
    28  2.9904e-01  2.1117e-03  2.0707e-03  2.3982e-03  5.9207e-03  1.6587e-02  0:13:21  472

 Reversed flow on 4371 faces (99.6% area) of pressure-outlet 24.

 Reversed flow on 1253 faces (60.5% area) of pressure-outlet 25.
    29  2.9053e-01  2.0489e-03  2.0009e-03  2.2775e-03  5.5300e-03  1.5718e-02  0:13:48  471

 Reversed flow on 4337 faces (98.7% area) of pressure-outlet 24.

 Reversed flow on 1289 faces (62.2% area) of pressure-outlet 25.
    30  2.8425e-01  2.0273e-03  1.9614e-03  2.2013e-03  5.2523e-03  1.5326e-02  0:12:35  470

 Reversed flow on 4026 faces (92.2% area) of pressure-outlet 24.

 Reversed flow on 1338 faces (64.5% area) of pressure-outlet 25.
    31  2.8168e-01  2.0121e-03  1.9520e-03  2.1573e-03  4.9609e-03  1.4193e-02  0:11:36  469

 Reversed flow on 3526 faces (80.8% area) of pressure-outlet 24.

 Reversed flow on 1371 faces (66.1% area) of pressure-outlet 25.
    32  2.8304e-01  2.0096e-03  1.9432e-03  2.1267e-03  4.7625e-03  1.3175e-02  0:12:23  468

 Reversed flow on 3223 faces (73.9% area) of pressure-outlet 24.

 Reversed flow on 1412 faces (67.9% area) of pressure-outlet 25.
    33  2.8532e-01  2.0059e-03  1.9380e-03  2.0997e-03  4.6704e-03  1.2211e-02  0:13:00  467

 Reversed flow on 3114 faces (71.6% area) of pressure-outlet 24.

 Reversed flow on 1470 faces (70.6% area) of pressure-outlet 25.

  iter  continuity  x-velocity  y-velocity  z-velocity           k     epsilon     time/iter
    34  2.9014e-01  2.0547e-03  1.9701e-03  2.1156e-03  4.5712e-03  1.1453e-02  0:13:29  466

 Reversed flow on 3257 faces (75.1% area) of pressure-outlet 24.

 Reversed flow on 1483 faces (71.2% area) of pressure-outlet 25.
    35  2.9471e-01  2.0672e-03  1.9792e-03  2.0849e-03  4.2424e-03  1.0378e-02  0:13:52  465

 Reversed flow on 3074 faces (70.4% area) of pressure-outlet 24.

 Reversed flow on 1480 faces (70.9% area) of pressure-outlet 25.
    36  2.9332e-01  2.0042e-03  1.9196e-03  1.9988e-03  4.1055e-03  9.9237e-03  0:14:10  464

 Reversed flow on 3048 faces (69.4% area) of pressure-outlet 24.

 Reversed flow on 1510 faces (72.2% area) of pressure-outlet 25.
    37  2.9090e-01  1.9699e-03  1.8934e-03  1.9520e-03  3.9957e-03  9.5478e-03  0:12:51  463

 Reversed flow on 3044 faces (69.3% area) of pressure-outlet 24.

 Reversed flow on 1510 faces (72.3% area) of pressure-outlet 25.
    38  2.9060e-01  1.9482e-03  1.8861e-03  1.9295e-03  3.9495e-03  9.1538e-03  0:13:20  462

 Reversed flow on 3068 faces (69.9% area) of pressure-outlet 24.

 Reversed flow on 1514 faces (72.4% area) of pressure-outlet 25.
    39  2.9186e-01  1.9440e-03  1.8919e-03  1.9296e-03  3.8658e-03  8.8453e-03  0:13:43  461

 Reversed flow on 3079 faces (70.4% area) of pressure-outlet 24.

 Reversed flow on 1510 faces (72.2% area) of pressure-outlet 25.
    40  2.9380e-01  1.9483e-03  1.9101e-03  1.9436e-03  3.8191e-03  8.8089e-03  0:14:01  460

 Reversed flow on 3104 faces (71.2% area) of pressure-outlet 24.

 Reversed flow on 1506 faces (72.0% area) of pressure-outlet 25.
    41  2.9631e-01  1.9682e-03  1.9353e-03  1.9607e-03  3.7969e-03  9.1510e-03  0:14:15  459

 Reversed flow on 3220 faces (74.1% area) of pressure-outlet 24.

 Reversed flow on 1505 faces (72.0% area) of pressure-outlet 25.
    42  2.9942e-01  1.9722e-03  1.9722e-03  1.9803e-03  3.7521e-03  8.8568e-03  0:14:26  458

 Reversed flow on 3297 faces (76.0% area) of pressure-outlet 24.

 Reversed flow on 1513 faces (72.3% area) of pressure-outlet 25.
    43  3.0318e-01  1.9722e-03  1.9999e-03  1.9966e-03  3.7424e-03  8.7516e-03  0:14:34  457

 Reversed flow on 3297 faces (76.3% area) of pressure-outlet 24.

 Reversed flow on 1519 faces (72.6% area) of pressure-outlet 25.
    44  3.0686e-01  1.9674e-03  2.0288e-03  2.0105e-03  3.7327e-03  8.7473e-03  0:13:09  456

 Reversed flow on 3239 faces (74.9% area) of pressure-outlet 24.

 Reversed flow on 1536 faces (73.3% area) of pressure-outlet 25.

  iter  continuity  x-velocity  y-velocity  z-velocity           k     epsilon     time/iter
    45  3.1030e-01  1.9650e-03  2.0387e-03  2.0202e-03  3.8064e-03  9.0967e-03  0:13:32  455

 Reversed flow on 3172 faces (73.5% area) of pressure-outlet 24.

 Reversed flow on 1565 faces (74.6% area) of pressure-outlet 25.
    46  3.1404e-01  1.9607e-03  2.0498e-03  2.0374e-03  3.7996e-03  8.7750e-03  0:12:19  454

 Reversed flow on 3088 faces (71.7% area) of pressure-outlet 24.

 Reversed flow on 1578 faces (75.1% area) of pressure-outlet 25.
    47  3.1870e-01  1.9663e-03  2.0522e-03  2.0607e-03  3.9005e-03  8.9792e-03  0:12:51  453

 Reversed flow on 2977 faces (69.2% area) of pressure-outlet 24.

 Reversed flow on 1592 faces (75.7% area) of pressure-outlet 25.
    48  3.2424e-01  1.9740e-03  2.0631e-03  2.0860e-03  3.8887e-03  8.6855e-03  0:13:16  452

 Reversed flow on 2899 faces (67.5% area) of pressure-outlet 24.

 Reversed flow on 1613 faces (76.6% area) of pressure-outlet 25.
    49  3.3032e-01  1.9771e-03  2.0622e-03  2.1084e-03  3.9144e-03  8.8079e-03  0:12:06  451

 Reversed flow on 2846 faces (66.3% area) of pressure-outlet 24.

 Reversed flow on 1615 faces (76.8% area) of pressure-outlet 25.
    50  3.3598e-01  1.9673e-03  2.0649e-03  2.1208e-03  3.7871e-03  8.2858e-03  0:12:39  450

 Reversed flow on 2855 faces (66.4% area) of pressure-outlet 24.

 Reversed flow on 1633 faces (77.5% area) of pressure-outlet 25.
    51  3.4096e-01  1.9519e-03  2.0482e-03  2.1205e-03  3.8065e-03  8.2981e-03  0:13:06  449

 Reversed flow on 2921 faces (67.8% area) of pressure-outlet 24.

 Reversed flow on 1624 faces (77.1% area) of pressure-outlet 25.
    52  3.4359e-01  1.9438e-03  2.0238e-03  2.1096e-03  3.7358e-03  7.8779e-03  0:11:57  448

 Reversed flow on 2995 faces (69.7% area) of pressure-outlet 24.

 Reversed flow on 1621 faces (76.9% area) of pressure-outlet 25.
    53  3.4656e-01  1.9463e-03  2.0116e-03  2.1199e-03  3.8145e-03  7.8305e-03  0:12:31  447

 Reversed flow on 3086 faces (71.8% area) of pressure-outlet 24.

 Reversed flow on 1607 faces (76.3% area) of pressure-outlet 25.
    54  3.5226e-01  1.9677e-03  2.0172e-03  2.1617e-03  3.8357e-03  7.8970e-03  0:11:29  446

 Reversed flow on 3207 faces (74.3% area) of pressure-outlet 24.

 Reversed flow on 1585 faces (75.3% area) of pressure-outlet 25.
    55  3.6099e-01  1.9952e-03  2.0424e-03  2.2129e-03  3.8874e-03  8.1708e-03  0:12:08  445

 Reversed flow on 3311 faces (76.5% area) of pressure-outlet 24.

 Reversed flow on 1562 faces (74.3% area) of pressure-outlet 25.

  iter  continuity  x-velocity  y-velocity  z-velocity           k     epsilon     time/iter
    56  3.7019e-01  2.0311e-03  2.0660e-03  2.2580e-03  3.8841e-03  8.7451e-03  0:12:38  444

 Reversed flow on 3427 faces (79.0% area) of pressure-outlet 24.

 Reversed flow on 1544 faces (73.6% area) of pressure-outlet 25.
    57  3.7906e-01  2.0430e-03  2.0882e-03  2.2838e-03  3.8404e-03  8.6824e-03  0:11:34  443

 Reversed flow on 3554 faces (81.8% area) of pressure-outlet 24.

 Reversed flow on 1536 faces (73.2% area) of pressure-outlet 25.
    58  3.8550e-01  2.0592e-03  2.0940e-03  2.2901e-03  3.8605e-03  9.1260e-03  0:10:42  442

 Reversed flow on 3656 faces (83.7% area) of pressure-outlet 24.

 Reversed flow on 1531 faces (73.0% area) of pressure-outlet 25.
    59  3.9060e-01  2.0642e-03  2.1096e-03  2.2891e-03  3.7880e-03  8.7826e-03  0:11:29  441

 Reversed flow on 3741 faces (85.1% area) of pressure-outlet 24.

 Reversed flow on 1522 faces (72.6% area) of pressure-outlet 25.
    60  3.9455e-01  2.0806e-03  2.1096e-03  2.2873e-03  3.8500e-03  9.5277e-03  0:12:06  440

 Reversed flow on 3813 faces (86.1% area) of pressure-outlet 24.

 Reversed flow on 1516 faces (72.4% area) of pressure-outlet 25.
    61  3.9732e-01  2.0816e-03  2.1136e-03  2.2953e-03  3.7590e-03  8.8769e-03  0:11:07  439

 Reversed flow on 3836 faces (86.6% area) of pressure-outlet 24.

 Reversed flow on 1525 faces (72.8% area) of pressure-outlet 25.
    62  3.9929e-01  2.0916e-03  2.1062e-03  2.3063e-03  3.8042e-03  9.0224e-03  0:10:20  438

 Reversed flow on 3837 faces (86.7% area) of pressure-outlet 24.

 Reversed flow on 1521 faces (72.7% area) of pressure-outlet 25.
    63  4.0206e-01  2.0957e-03  2.1065e-03  2.3160e-03  3.6857e-03  8.7417e-03  0:11:10  437

 Reversed flow on 3851 faces (86.9% area) of pressure-outlet 24.

 Reversed flow on 1528 faces (73.1% area) of pressure-outlet 25.
    64  4.0400e-01  2.0976e-03  2.1048e-03  2.3110e-03  3.7152e-03  8.9636e-03  0:11:49  436

 Reversed flow on 3888 faces (87.5% area) of pressure-outlet 24.

 Reversed flow on 1533 faces (73.3% area) of pressure-outlet 25.
    65  4.0547e-01  2.0882e-03  2.1115e-03  2.2919e-03  3.5948e-03  8.4132e-03  0:12:20  435

 Reversed flow on 3944 faces (88.4% area) of pressure-outlet 24.

 Reversed flow on 1535 faces (73.4% area) of pressure-outlet 25.
    66  4.0604e-01  2.0913e-03  2.1200e-03  2.2631e-03  3.6911e-03  9.0862e-03  0:12:44  434

 Reversed flow on 3971 faces (89.1% area) of pressure-outlet 24.

 Reversed flow on 1539 faces (73.6% area) of pressure-outlet 25.

  iter  continuity  x-velocity  y-velocity  z-velocity           k     epsilon     time/iter
    67  4.0668e-01  2.1053e-03  2.1390e-03  2.2260e-03  3.6918e-03  9.3279e-03  0:11:37  433

 Reversed flow on 3999 faces (89.7% area) of pressure-outlet 24.

 Reversed flow on 1537 faces (73.5% area) of pressure-outlet 25.
    68  4.0675e-01  2.1059e-03  2.1514e-03  2.1904e-03  3.7154e-03  9.2690e-03  0:12:09  432

 Reversed flow on 4033 faces (90.6% area) of pressure-outlet 24.

 Reversed flow on 1532 faces (73.3% area) of pressure-outlet 25.
    69  4.0677e-01  2.1034e-03  2.1561e-03  2.1652e-03  3.6118e-03  8.8302e-03  0:11:08  431

 Reversed flow on 4066 faces (91.3% area) of pressure-outlet 24.

 Reversed flow on 1526 faces (73.0% area) of pressure-outlet 25.
    70  4.0569e-01  2.0906e-03  2.1658e-03  2.1470e-03  3.5961e-03  8.8421e-03  0:11:45  430

 Reversed flow on 4086 faces (91.9% area) of pressure-outlet 24.

 Reversed flow on 1524 faces (72.9% area) of pressure-outlet 25.
    71  4.0452e-01  2.0979e-03  2.1667e-03  2.1443e-03  3.6217e-03  8.9699e-03  0:12:14  429

 Reversed flow on 4107 faces (92.6% area) of pressure-outlet 24.

 Reversed flow on 1521 faces (72.8% area) of pressure-outlet 25.
    72  4.0367e-01  2.1133e-03  2.1776e-03  2.1645e-03  3.6812e-03  8.8931e-03  0:12:37  428

 Reversed flow on 3947 faces (90.3% area) of pressure-outlet 24.

 Reversed flow on 1519 faces (72.7% area) of pressure-outlet 25.
    73  4.0508e-01  2.1529e-03  2.1751e-03  2.1929e-03  3.8277e-03  9.7842e-03  0:11:30  427

 turbulent viscosity limited to viscosity ratio of 1.000000e+05 in 1 cells 

 Reversed flow on 3761 faces (86.6% area) of pressure-outlet 24.

 Reversed flow on 1523 faces (72.9% area) of pressure-outlet 25.
    74  4.0832e-01  2.1832e-03  2.1743e-03  2.2273e-03  3.8625e-03  1.0030e-02  0:12:01  426

 turbulent viscosity limited to viscosity ratio of 1.000000e+05 in 1 cells 

 Reversed flow on 3691 faces (85.2% area) of pressure-outlet 24.

 Reversed flow on 1521 faces (72.9% area) of pressure-outlet 25.
    75  4.1024e-01  2.2253e-03  2.1627e-03  2.2676e-03  4.0433e-03  1.0829e-02  0:12:25  425

 Reversed flow on 3744 faces (86.2% area) of pressure-outlet 24.

 Reversed flow on 1523 faces (72.9% area) of pressure-outlet 25.
    76  4.1295e-01  2.2621e-03  2.1771e-03  2.3228e-03  4.0712e-03  1.0688e-02  0:11:20  424

 turbulent viscosity limited to viscosity ratio of 1.000000e+05 in 8 cells 

 Reversed flow on 3791 faces (87.7% area) of pressure-outlet 24.

 Reversed flow on 1524 faces (73.0% area) of pressure-outlet 25.
    77  4.1728e-01  2.3130e-03  2.2049e-03  2.3864e-03  4.2085e-03  1.1323e-02  0:13:16  423

 turbulent viscosity limited to viscosity ratio of 1.000000e+05 in 21 cells 

 Reversed flow on 3799 faces (88.2% area) of pressure-outlet 24.

 Reversed flow on 1530 faces (73.3% area) of pressure-outlet 25.

  iter  continuity  x-velocity  y-velocity  z-velocity           k     epsilon     time/iter
    78  4.2189e-01  2.3603e-03  2.2599e-03  2.4502e-03  4.1525e-03  1.0830e-02  0:13:24  422

 turbulent viscosity limited to viscosity ratio of 1.000000e+05 in 24 cells 

 Reversed flow on 3797 faces (88.2% area) of pressure-outlet 24.

 Reversed flow on 1530 faces (73.3% area) of pressure-outlet 25.
    79  4.2765e-01  2.4179e-03  2.3170e-03  2.5196e-03  4.2143e-03  1.0909e-02  0:12:06  421

 turbulent viscosity limited to viscosity ratio of 1.000000e+05 in 11 cells 

 Reversed flow on 3791 faces (88.0% area) of pressure-outlet 24.

 Reversed flow on 1527 faces (73.2% area) of pressure-outlet 25.
    80  4.3438e-01  2.4691e-03  2.3794e-03  2.5916e-03  4.1248e-03  1.0456e-02  0:12:28  420

 turbulent viscosity limited to viscosity ratio of 1.000000e+05 in 5 cells 

 Reversed flow on 3753 faces (86.8% area) of pressure-outlet 24.

 Reversed flow on 1528 faces (73.2% area) of pressure-outlet 25.
    81  4.4054e-01  2.5137e-03  2.4315e-03  2.6531e-03  4.1425e-03  1.0487e-02  0:11:20  419

 Reversed flow on 3709 faces (85.5% area) of pressure-outlet 24.

 Reversed flow on 1525 faces (73.0% area) of pressure-outlet 25.
    82  4.4656e-01  2.5449e-03  2.4826e-03  2.7039e-03  4.0808e-03  1.0278e-02  0:10:27  418

 Reversed flow on 3626 faces (83.6% area) of pressure-outlet 24.

 Reversed flow on 1526 faces (73.1% area) of pressure-outlet 25.
    83  4.5132e-01  2.5663e-03  2.5273e-03  2.7444e-03  4.1373e-03  1.0465e-02  0:11:07  417

 Reversed flow on 3590 faces (82.9% area) of pressure-outlet 24.

 Reversed flow on 1529 faces (73.3% area) of pressure-outlet 25.
    84  4.5415e-01  2.5819e-03  2.5593e-03  2.7636e-03  4.1339e-03  1.0825e-02  0:11:39  416

 Reversed flow on 3543 faces (82.4% area) of pressure-outlet 24.

 Reversed flow on 1528 faces (73.2% area) of pressure-outlet 25.
    85  4.5751e-01  2.5828e-03  2.5748e-03  2.7717e-03  4.0603e-03  1.0291e-02  0:12:04  415

 Reversed flow on 3517 faces (82.1% area) of pressure-outlet 24.

 Reversed flow on 1528 faces (73.2% area) of pressure-outlet 25.
    86  4.5874e-01  2.5769e-03  2.5586e-03  2.7687e-03  3.9868e-03  1.0217e-02  0:12:23  414

 Reversed flow on 3509 faces (82.2% area) of pressure-outlet 24.

 Reversed flow on 1531 faces (73.3% area) of pressure-outlet 25.
    87  4.5762e-01  2.5604e-03  2.5316e-03  2.7580e-03  3.8927e-03  9.7838e-03  0:11:16  413

 Reversed flow on 3527 faces (83.4% area) of pressure-outlet 24.

 Reversed flow on 1531 faces (73.3% area) of pressure-outlet 25.
    88  4.5465e-01  2.5446e-03  2.4866e-03  2.7199e-03  3.8638e-03  1.0236e-02  0:10:22  412

 Reversed flow on 3578 faces (84.4% area) of pressure-outlet 24.

 Reversed flow on 1535 faces (73.5% area) of pressure-outlet 25.

  iter  continuity  x-velocity  y-velocity  z-velocity           k     epsilon     time/iter
    89  4.5213e-01  2.5049e-03  2.4366e-03  2.6592e-03  3.6977e-03  9.5872e-03  0:11:00  411

 Reversed flow on 3607 faces (85.3% area) of pressure-outlet 24.

 Reversed flow on 1537 faces (73.6% area) of pressure-outlet 25.
    90  4.4805e-01  2.4508e-03  2.3681e-03  2.5749e-03  3.6266e-03  9.4306e-03  0:11:31  410

 Reversed flow on 3658 faces (86.5% area) of pressure-outlet 24.

 Reversed flow on 1540 faces (73.7% area) of pressure-outlet 25.
    91  4.4317e-01  2.3682e-03  2.3032e-03  2.4799e-03  3.4830e-03  8.8676e-03  0:10:33  409

 Reversed flow on 3673 faces (87.2% area) of pressure-outlet 24.

 Reversed flow on 1541 faces (73.7% area) of pressure-outlet 25.
    92  4.3696e-01  2.2867e-03  2.2285e-03  2.3889e-03  3.4958e-03  9.0352e-03  0:11:09  408

 Reversed flow on 3674 faces (87.7% area) of pressure-outlet 24.

 Reversed flow on 1546 faces (74.0% area) of pressure-outlet 25.
    93  4.2982e-01  2.2040e-03  2.1724e-03  2.3211e-03  3.3888e-03  8.4178e-03  0:11:36  407

 Reversed flow on 3669 faces (87.9% area) of pressure-outlet 24.

 Reversed flow on 1544 faces (73.9% area) of pressure-outlet 25.
    94  4.2435e-01  2.1459e-03  2.1258e-03  2.2821e-03  3.4921e-03  8.7781e-03  0:10:37  406

 Reversed flow on 3679 faces (88.3% area) of pressure-outlet 24.

 Reversed flow on 1537 faces (73.6% area) of pressure-outlet 25.
    95  4.2269e-01  2.1148e-03  2.1047e-03  2.2754e-03  3.4762e-03  8.5468e-03  0:11:10  405

 Reversed flow on 3694 faces (88.9% area) of pressure-outlet 24.

 Reversed flow on 1535 faces (73.5% area) of pressure-outlet 25.
    96  4.2590e-01  2.1265e-03  2.0917e-03  2.2962e-03  3.5864e-03  8.8078e-03  0:10:16  404

 turbulent viscosity limited to viscosity ratio of 1.000000e+05 in 11 cells 

 Reversed flow on 3706 faces (89.4% area) of pressure-outlet 24.

 Reversed flow on 1535 faces (73.5% area) of pressure-outlet 25.
    97  4.3173e-01  2.1629e-03  2.0970e-03  2.3328e-03  3.5877e-03  8.9077e-03  0:10:53  403

 turbulent viscosity limited to viscosity ratio of 1.000000e+05 in 15 cells 

 Reversed flow on 3724 faces (89.9% area) of pressure-outlet 24.

 Reversed flow on 1540 faces (73.7% area) of pressure-outlet 25.
    98  4.3991e-01  2.2070e-03  2.1197e-03  2.3793e-03  3.6325e-03  8.9799e-03  0:10:01  402

 turbulent viscosity limited to viscosity ratio of 1.000000e+05 in 7 cells 

 Reversed flow on 3553 faces (87.3% area) of pressure-outlet 24.

 Reversed flow on 1544 faces (73.9% area) of pressure-outlet 25.
    99  4.5233e-01  2.2543e-03  2.1504e-03  2.4262e-03  3.5694e-03  8.8575e-03  0:09:20  401

 Reversed flow on 3233 faces (78.9% area) of pressure-outlet 24.

 Reversed flow on 1548 faces (74.0% area) of pressure-outlet 25.

  iter  continuity  x-velocity  y-velocity  z-velocity           k     epsilon     time/iter
   100  4.6549e-01  2.2812e-03  2.1667e-03  2.4406e-03  3.5123e-03  8.5586e-03  0:10:07  400

 Reversed flow on 3210 faces (77.1% area) of pressure-outlet 24.

 Reversed flow on 1549 faces (74.1% area) of pressure-outlet 25.
   101  4.7503e-01  2.2862e-03  2.1633e-03  2.4095e-03  3.4542e-03  8.6708e-03  0:13:23  399

 Reversed flow on 3251 faces (76.8% area) of pressure-outlet 24.

 Reversed flow on 1554 faces (74.3% area) of pressure-outlet 25.
   102  4.7835e-01  2.2666e-03  2.1516e-03  2.3615e-03  3.3551e-03  8.3116e-03  0:12:01  398

 Reversed flow on 3346 faces (78.7% area) of pressure-outlet 24.

 Reversed flow on 1558 faces (74.5% area) of pressure-outlet 25.
   103  4.7758e-01  2.2543e-03  2.1255e-03  2.3144e-03  3.3275e-03  8.4906e-03  0:10:55  397

 turbulent viscosity limited to viscosity ratio of 1.000000e+05 in 1 cells 

 Reversed flow on 3463 faces (81.9% area) of pressure-outlet 24.

 Reversed flow on 1558 faces (74.5% area) of pressure-outlet 25.
   104  4.7525e-01  2.2433e-03  2.1156e-03  2.2754e-03  3.2564e-03  8.1181e-03  0:11:21  396

 turbulent viscosity limited to viscosity ratio of 1.000000e+05 in 5 cells 

 Reversed flow on 3550 faces (83.8% area) of pressure-outlet 24.

 Reversed flow on 1549 faces (74.1% area) of pressure-outlet 25.
   105  4.7248e-01  2.2506e-03  2.1111e-03  2.2550e-03  3.3168e-03  8.2209e-03  0:10:22  395

 turbulent viscosity limited to viscosity ratio of 1.000000e+05 in 4 cells 

 Reversed flow on 3577 faces (84.6% area) of pressure-outlet 24.

 Reversed flow on 1537 faces (73.6% area) of pressure-outlet 25.
   106  4.7028e-01  2.2588e-03  2.1282e-03  2.2616e-03  3.2887e-03  7.8944e-03  0:10:54  394

 turbulent viscosity limited to viscosity ratio of 1.000000e+05 in 9 cells 

 Reversed flow on 3499 faces (82.9% area) of pressure-outlet 24.

 Reversed flow on 1524 faces (72.9% area) of pressure-outlet 25.
   107  4.6898e-01  2.2841e-03  2.1474e-03  2.2969e-03  3.4358e-03  8.4978e-03  0:11:19  393

 turbulent viscosity limited to viscosity ratio of 1.000000e+05 in 16 cells 

 Reversed flow on 3424 faces (81.0% area) of pressure-outlet 24.

 Reversed flow on 1518 faces (72.7% area) of pressure-outlet 25.
   108  4.6950e-01  2.3126e-03  2.1861e-03  2.3546e-03  3.4443e-03  8.4826e-03  0:11:39  392

 turbulent viscosity limited to viscosity ratio of 1.000000e+05 in 8 cells 

 Reversed flow on 3330 faces (78.7% area) of pressure-outlet 24.

 Reversed flow on 1510 faces (72.3% area) of pressure-outlet 25.
   109  4.7187e-01  2.3447e-03  2.2292e-03  2.4183e-03  3.6182e-03  9.0166e-03  0:10:36  391

 turbulent viscosity limited to viscosity ratio of 1.000000e+05 in 3 cells 

 Reversed flow on 3244 faces (76.8% area) of pressure-outlet 24.

 Reversed flow on 1506 faces (72.2% area) of pressure-outlet 25.
   110  4.7601e-01  2.3716e-03  2.2762e-03  2.4744e-03  3.6645e-03  9.6856e-03  0:11:03  390

 Reversed flow on 3156 faces (75.2% area) of pressure-outlet 24.

 Reversed flow on 1505 faces (72.1% area) of pressure-outlet 25.

  iter  continuity  x-velocity  y-velocity  z-velocity           k     epsilon     time/iter
   111  4.8074e-01  2.3841e-03  2.3054e-03  2.5217e-03  3.6555e-03  9.8186e-03  0:10:07  389

 Reversed flow on 3090 faces (74.0% area) of pressure-outlet 24.

 Reversed flow on 1507 faces (72.2% area) of pressure-outlet 25.
   112  4.8491e-01  2.3831e-03  2.3148e-03  2.5515e-03  3.5248e-03  9.6903e-03  0:10:40  388

 Reversed flow on 3081 faces (73.8% area) of pressure-outlet 24.

 Reversed flow on 1507 faces (72.2% area) of pressure-outlet 25.
   113  4.8558e-01  2.3563e-03  2.3099e-03  2.5616e-03  3.4593e-03  9.6994e-03  0:11:05  387

 Reversed flow on 3095 faces (74.2% area) of pressure-outlet 24.

 Reversed flow on 1505 faces (72.1% area) of pressure-outlet 25.
   114  4.8416e-01  2.3331e-03  2.2957e-03  2.5529e-03  3.4078e-03  9.8497e-03  0:10:08  386

 Reversed flow on 3139 faces (75.4% area) of pressure-outlet 24.

 Reversed flow on 1497 faces (71.7% area) of pressure-outlet 25.
   115  4.8199e-01  2.2963e-03  2.2789e-03  2.5325e-03  3.2713e-03  9.0523e-03  0:10:39  385

 Reversed flow on 3208 faces (76.9% area) of pressure-outlet 24.

 Reversed flow on 1493 faces (71.5% area) of pressure-outlet 25.
   116  4.8123e-01  2.2739e-03  2.2577e-03  2.5025e-03  3.2289e-03  9.0895e-03  0:11:04  384

 Reversed flow on 3376 faces (81.4% area) of pressure-outlet 24.

 Reversed flow on 1492 faces (71.4% area) of pressure-outlet 25.
   117  4.7938e-01  2.2416e-03  2.2365e-03  2.4667e-03  3.1466e-03  8.7931e-03  0:10:06  383

 Reversed flow on 3419 faces (83.0% area) of pressure-outlet 24.

 Reversed flow on 1489 faces (71.3% area) of pressure-outlet 25.
   118  4.7656e-01  2.2176e-03  2.2087e-03  2.4233e-03  3.1735e-03  8.9457e-03  0:10:36  382

 Reversed flow on 3476 faces (84.5% area) of pressure-outlet 24.

 Reversed flow on 1481 faces (70.9% area) of pressure-outlet 25.
   119  4.7231e-01  2.1816e-03  2.1867e-03  2.3828e-03  3.0588e-03  8.5387e-03  0:09:44  381

 Reversed flow on 3496 faces (85.2% area) of pressure-outlet 24.

 Reversed flow on 1475 faces (70.7% area) of pressure-outlet 25.
   120  4.6782e-01  2.1623e-03  2.1577e-03  2.3450e-03  3.1018e-03  8.8831e-03  0:10:18  380

 Reversed flow on 3519 faces (85.8% area) of pressure-outlet 24.

 Reversed flow on 1475 faces (70.7% area) of pressure-outlet 25.
   121  4.6274e-01  2.1359e-03  2.1372e-03  2.3158e-03  2.9947e-03  8.3785e-03  0:10:45  379

 Reversed flow on 3529 faces (86.0% area) of pressure-outlet 24.

 Reversed flow on 1485 faces (71.1% area) of pressure-outlet 25.

  iter  continuity  x-velocity  y-velocity  z-velocity           k     epsilon     time/iter
   122  4.5840e-01  2.1143e-03  2.1162e-03  2.2845e-03  3.0466e-03  8.3225e-03  0:09:50  378

 Reversed flow on 3551 faces (86.6% area) of pressure-outlet 24.

 Reversed flow on 1489 faces (71.3% area) of pressure-outlet 25.
   123  4.5465e-01  2.0862e-03  2.1012e-03  2.2597e-03  2.9167e-03  7.9179e-03  0:10:22  377

 Reversed flow on 3572 faces (87.1% area) of pressure-outlet 24.

 Reversed flow on 1490 faces (71.3% area) of pressure-outlet 25.
   124  4.5126e-01  2.0622e-03  2.0822e-03  2.2380e-03  2.9654e-03  7.9922e-03  0:10:46  376

 Reversed flow on 3577 faces (87.3% area) of pressure-outlet 24.

 Reversed flow on 1491 faces (71.4% area) of pressure-outlet 25.
   125  4.4973e-01  2.0336e-03  2.0640e-03  2.2234e-03  2.8648e-03  7.6854e-03  0:09:51  375

 Reversed flow on 3596 faces (87.7% area) of pressure-outlet 24.

 Reversed flow on 1497 faces (71.7% area) of pressure-outlet 25.
   126  4.4861e-01  2.0060e-03  2.0422e-03  2.2153e-03  2.8242e-03  7.1520e-03  0:10:21  374

 Reversed flow on 3583 faces (87.6% area) of pressure-outlet 24.

 Reversed flow on 1505 faces (72.0% area) of pressure-outlet 25.
   127  4.4804e-01  1.9865e-03  2.0088e-03  2.2101e-03  2.7323e-03  6.9577e-03  0:10:45  373

 Reversed flow on 3604 faces (87.9% area) of pressure-outlet 24.

 Reversed flow on 1506 faces (72.0% area) of pressure-outlet 25.
   128  4.4768e-01  1.9658e-03  1.9772e-03  2.2142e-03  2.6608e-03  6.4536e-03  0:11:03  372

 Reversed flow on 3610 faces (87.7% area) of pressure-outlet 24.

 Reversed flow on 1502 faces (71.8% area) of pressure-outlet 25.
   129  4.4774e-01  1.9565e-03  1.9489e-03  2.2304e-03  2.6385e-03  6.5561e-03  0:10:03  371

 Reversed flow on 3612 faces (87.6% area) of pressure-outlet 24.

 Reversed flow on 1502 faces (71.9% area) of pressure-outlet 25.
   130  4.4891e-01  1.9526e-03  1.9380e-03  2.2506e-03  2.5649e-03  5.9673e-03  0:10:29  370

 Reversed flow on 3602 faces (87.4% area) of pressure-outlet 24.

 Reversed flow on 1503 faces (72.0% area) of pressure-outlet 25.
   131  4.5134e-01  1.9606e-03  1.9289e-03  2.2724e-03  2.6068e-03  6.1242e-03  0:09:36  369

 Reversed flow on 3597 faces (87.4% area) of pressure-outlet 24.

 Reversed flow on 1498 faces (71.7% area) of pressure-outlet 25.
   132  4.5297e-01  1.9597e-03  1.9349e-03  2.2880e-03  2.6001e-03  6.0677e-03  0:08:53  368

 Reversed flow on 3611 faces (87.7% area) of pressure-outlet 24.

 Reversed flow on 1497 faces (71.7% area) of pressure-outlet 25.

  iter  continuity  x-velocity  y-velocity  z-velocity           k     epsilon     time/iter
   133  4.5484e-01  1.9571e-03  1.9367e-03  2.2912e-03  2.6460e-03  6.3666e-03  0:08:19  367

 Reversed flow on 3623 faces (88.0% area) of pressure-outlet 24.

 Reversed flow on 1492 faces (71.5% area) of pressure-outlet 25.
   134  4.5674e-01  1.9502e-03  1.9378e-03  2.2842e-03  2.6018e-03  6.3044e-03  0:09:04  366

 Reversed flow on 3638 faces (88.4% area) of pressure-outlet 24.

 Reversed flow on 1485 faces (71.1% area) of pressure-outlet 25.
   135  4.5768e-01  1.9419e-03  1.9348e-03  2.2634e-03  2.6438e-03  6.3874e-03  0:09:40  365

 Reversed flow on 3632 faces (88.5% area) of pressure-outlet 24.

 Reversed flow on 1477 faces (70.8% area) of pressure-outlet 25.
   136  4.5767e-01  1.9433e-03  1.9338e-03  2.2389e-03  2.6943e-03  6.5693e-03  0:08:56  364

 Reversed flow on 3634 faces (88.7% area) of pressure-outlet 24.

 Reversed flow on 1478 faces (70.9% area) of pressure-outlet 25.
   137  4.5855e-01  1.9502e-03  1.9331e-03  2.2199e-03  2.7693e-03  6.7728e-03  0:09:33  363

 Reversed flow on 3629 faces (88.8% area) of pressure-outlet 24.

 Reversed flow on 1473 faces (70.7% area) of pressure-outlet 25.
   138  4.6116e-01  1.9598e-03  1.9354e-03  2.2053e-03  2.7806e-03  6.5879e-03  0:10:02  362

 Reversed flow on 3620 faces (88.8% area) of pressure-outlet 24.

 Reversed flow on 1472 faces (70.6% area) of pressure-outlet 25.
   139  4.6433e-01  1.9701e-03  1.9330e-03  2.1931e-03  2.8367e-03  6.7671e-03  0:10:24  361

 Reversed flow on 3641 faces (89.6% area) of pressure-outlet 24.

 Reversed flow on 1472 faces (70.6% area) of pressure-outlet 25.
   140  4.6628e-01  1.9695e-03  1.9325e-03  2.1762e-03  2.8470e-03  6.9449e-03  0:09:30  360

 Reversed flow on 3663 faces (90.0% area) of pressure-outlet 24.

 Reversed flow on 1470 faces (70.5% area) of pressure-outlet 25.
   141  4.6585e-01  1.9627e-03  1.9170e-03  2.1538e-03  2.8483e-03  7.1280e-03  0:09:58  359

 Reversed flow on 3671 faces (90.1% area) of pressure-outlet 24.

 Reversed flow on 1474 faces (70.7% area) of pressure-outlet 25.
   142  4.6372e-01  1.9504e-03  1.8958e-03  2.1278e-03  2.8157e-03  6.8311e-03  0:10:21  358

 turbulent viscosity limited to viscosity ratio of 1.000000e+05 in 69 cells 

 Reversed flow on 3695 faces (90.6% area) of pressure-outlet 24.

 Reversed flow on 1475 faces (70.8% area) of pressure-outlet 25.
   143  4.6010e-01  1.9418e-03  1.8704e-03  2.1032e-03  2.9798e-03  7.2345e-03  0:09:26  357

 turbulent viscosity limited to viscosity ratio of 1.000000e+05 in 656 cells 

 Reversed flow on 3711 faces (90.8% area) of pressure-outlet 24.

 Reversed flow on 1474 faces (70.7% area) of pressure-outlet 25.

  iter  continuity  x-velocity  y-velocity  z-velocity           k     epsilon     time/iter
   144  4.5592e-01  1.9439e-03  1.8619e-03  2.0967e-03  3.9760e-03  7.7498e-03  0:09:54  356

 turbulent viscosity limited to viscosity ratio of 1.000000e+05 in 320 cells 

 Reversed flow on 3721 faces (90.7% area) of pressure-outlet 24.

 Reversed flow on 1476 faces (70.8% area) of pressure-outlet 25.
   145  4.5391e-01  1.9759e-03  1.8857e-03  2.1199e-03  7.2607e-03  8.4848e-03  0:10:16  355

 turbulent viscosity limited to viscosity ratio of 1.000000e+05 in 30 cells 

 Reversed flow on 3761 faces (90.5% area) of pressure-outlet 24.

 Reversed flow on 1478 faces (70.9% area) of pressure-outlet 25.
   146  4.5575e-01  1.9944e-03  1.9211e-03  2.1430e-03  6.7293e-03  7.9689e-03  0:09:22  354

 Reversed flow on 3731 faces (89.6% area) of pressure-outlet 24.

 Reversed flow on 1486 faces (71.3% area) of pressure-outlet 25.
   147  4.5998e-01  2.0045e-03  1.9289e-03  2.1580e-03  3.7481e-03  7.0433e-03  0:09:50  353

 Reversed flow on 3701 faces (89.1% area) of pressure-outlet 24.

 Reversed flow on 1488 faces (71.4% area) of pressure-outlet 25.
   148  4.6476e-01  2.0132e-03  1.9435e-03  2.1864e-03  3.0867e-03  6.7783e-03  0:10:11  352

 Reversed flow on 3660 faces (88.5% area) of pressure-outlet 24.

 Reversed flow on 1493 faces (71.6% area) of pressure-outlet 25.
   149  4.7025e-01  2.0131e-03  1.9564e-03  2.2115e-03  2.9042e-03  6.5740e-03  0:09:18  351

 Reversed flow on 3619 faces (87.8% area) of pressure-outlet 24.

 Reversed flow on 1494 faces (71.6% area) of pressure-outlet 25.
   150  4.7413e-01  2.0025e-03  1.9633e-03  2.2273e-03  2.7822e-03  6.4464e-03  0:09:45  350

 Reversed flow on 3596 faces (87.5% area) of pressure-outlet 24.

 Reversed flow on 1493 faces (71.6% area) of pressure-outlet 25.
   151  4.7737e-01  1.9885e-03  1.9629e-03  2.2364e-03  2.7023e-03  6.1786e-03  0:10:06  349

 Reversed flow on 3574 faces (87.2% area) of pressure-outlet 24.

 Reversed flow on 1489 faces (71.4% area) of pressure-outlet 25.
   152  4.7802e-01  1.9765e-03  1.9535e-03  2.2315e-03  2.6295e-03  6.0145e-03  0:09:13  348

 Reversed flow on 3546 faces (86.8% area) of pressure-outlet 24.

 Reversed flow on 1482 faces (71.0% area) of pressure-outlet 25.
   153  4.7756e-01  1.9664e-03  1.9423e-03  2.2201e-03  2.6021e-03  5.7946e-03  0:09:40  347

 Reversed flow on 3520 faces (86.3% area) of pressure-outlet 24.

 Reversed flow on 1477 faces (70.7% area) of pressure-outlet 25.
   154  4.7513e-01  1.9610e-03  1.9295e-03  2.2092e-03  2.5626e-03  5.7973e-03  0:10:01  346

 Reversed flow on 3496 faces (85.8% area) of pressure-outlet 24.

 Reversed flow on 1472 faces (70.5% area) of pressure-outlet 25.

  iter  continuity  x-velocity  y-velocity  z-velocity           k     epsilon     time/iter
   155  4.7333e-01  1.9590e-03  1.9096e-03  2.2010e-03  2.5159e-03  5.5337e-03  0:09:09  345

 Reversed flow on 3481 faces (85.4% area) of pressure-outlet 24.

 Reversed flow on 1473 faces (70.6% area) of pressure-outlet 25.
   156  4.7117e-01  1.9567e-03  1.8886e-03  2.1973e-03  2.5114e-03  5.3673e-03  0:09:35  344

 Reversed flow on 3456 faces (85.0% area) of pressure-outlet 24.

 Reversed flow on 1472 faces (70.5% area) of pressure-outlet 25.
   157  4.6964e-01  1.9609e-03  1.8873e-03  2.2026e-03  2.5641e-03  5.5616e-03  0:09:56  343

 Reversed flow on 3444 faces (84.9% area) of pressure-outlet 24.

 Reversed flow on 1477 faces (70.8% area) of pressure-outlet 25.
   158  4.6842e-01  1.9715e-03  1.9044e-03  2.2149e-03  2.6445e-03  6.0448e-03  0:09:04  342

 Reversed flow on 3420 faces (84.4% area) of pressure-outlet 24.

 Reversed flow on 1482 faces (71.1% area) of pressure-outlet 25.
   159  4.6818e-01  1.9867e-03  1.9396e-03  2.2295e-03  2.6876e-03  6.0598e-03  0:09:30  341

 Reversed flow on 3367 faces (83.5% area) of pressure-outlet 24.

 Reversed flow on 1493 faces (71.7% area) of pressure-outlet 25.
   160  4.6982e-01  2.0096e-03  1.9731e-03  2.2434e-03  2.7010e-03  6.2494e-03  0:08:43  340

 Reversed flow on 3324 faces (83.0% area) of pressure-outlet 24.

 Reversed flow on 1505 faces (72.2% area) of pressure-outlet 25.
   161  4.7223e-01  2.0264e-03  2.0001e-03  2.2525e-03  2.7328e-03  6.4193e-03  0:09:13  339

 turbulent viscosity limited to viscosity ratio of 1.000000e+05 in 19 cells 

 Reversed flow on 3278 faces (82.1% area) of pressure-outlet 24.

 Reversed flow on 1513 faces (72.5% area) of pressure-outlet 25.
   162  4.7425e-01  2.0400e-03  2.0162e-03  2.2545e-03  2.8086e-03  6.9264e-03  0:09:36  338

 turbulent viscosity limited to viscosity ratio of 1.000000e+05 in 718 cells 

 Reversed flow on 3188 faces (79.9% area) of pressure-outlet 24.

 Reversed flow on 1518 faces (72.7% area) of pressure-outlet 25.
   163  4.7604e-01  2.0474e-03  2.0305e-03  2.2511e-03  3.3666e-03  6.9974e-03  0:08:47  337

 turbulent viscosity limited to viscosity ratio of 1.000000e+05 in 85 cells 

 Reversed flow on 3096 faces (77.1% area) of pressure-outlet 24.

 Reversed flow on 1526 faces (73.1% area) of pressure-outlet 25.
   164  4.7617e-01  2.0645e-03  2.0445e-03  2.2548e-03  7.2617e-03  7.8772e-03  0:09:15  336

 Reversed flow on 3054 faces (75.2% area) of pressure-outlet 24.

 Reversed flow on 1532 faces (73.3% area) of pressure-outlet 25.
   165  4.7545e-01  2.0572e-03  2.0387e-03  2.2346e-03  4.5572e-03  6.6982e-03  0:08:29  335

 Reversed flow on 3011 faces (73.9% area) of pressure-outlet 24.

 Reversed flow on 1535 faces (73.5% area) of pressure-outlet 25.

  iter  continuity  x-velocity  y-velocity  z-velocity           k     epsilon     time/iter
   166  4.7335e-01  2.0525e-03  2.0064e-03  2.2034e-03  3.1477e-03  6.3007e-03  0:09:00  334

 Reversed flow on 3003 faces (73.3% area) of pressure-outlet 24.

 Reversed flow on 1535 faces (73.5% area) of pressure-outlet 25.
   167  4.7157e-01  2.0387e-03  1.9802e-03  2.1812e-03  2.8904e-03  5.7389e-03  0:09:24  333

 Reversed flow on 3015 faces (73.2% area) of pressure-outlet 24.

 Reversed flow on 1531 faces (73.3% area) of pressure-outlet 25.
   168  4.6904e-01  2.0151e-03  1.9588e-03  2.1620e-03  2.7999e-03  5.7883e-03  0:08:36  332

 Reversed flow on 3053 faces (73.8% area) of pressure-outlet 24.

 Reversed flow on 1520 faces (72.7% area) of pressure-outlet 25.
   169  4.6617e-01  1.9960e-03  1.9391e-03  2.1513e-03  2.7097e-03  5.3989e-03  0:09:04  331

 Reversed flow on 3044 faces (73.9% area) of pressure-outlet 24.

 Reversed flow on 1513 faces (72.4% area) of pressure-outlet 25.
   170  4.6511e-01  1.9907e-03  1.9231e-03  2.1503e-03  2.6934e-03  5.5796e-03  0:08:20  330

 Reversed flow on 3101 faces (75.4% area) of pressure-outlet 24.

 Reversed flow on 1500 faces (71.8% area) of pressure-outlet 25.
   171  4.6405e-01  1.9762e-03  1.9318e-03  2.1574e-03  2.6673e-03  5.3969e-03  0:07:45  329

 Reversed flow on 3149 faces (76.7% area) of pressure-outlet 24.

 Reversed flow on 1484 faces (71.1% area) of pressure-outlet 25.
   172  4.6396e-01  1.9914e-03  1.9340e-03  2.1638e-03  2.7039e-03  5.7295e-03  0:08:22  328

 Reversed flow on 3192 faces (77.9% area) of pressure-outlet 24.

 Reversed flow on 1468 faces (70.3% area) of pressure-outlet 25.
   173  4.6543e-01  2.0031e-03  1.9389e-03  2.1681e-03  2.6651e-03  5.9173e-03  0:07:46  327

 Reversed flow on 3236 faces (79.1% area) of pressure-outlet 24.

 Reversed flow on 1457 faces (69.8% area) of pressure-outlet 25.
   174  4.6664e-01  2.0100e-03  1.9460e-03  2.1665e-03  2.7309e-03  6.4201e-03  0:08:22  326

 Reversed flow on 3262 faces (79.8% area) of pressure-outlet 24.

 Reversed flow on 1460 faces (69.9% area) of pressure-outlet 25.
   175  4.6764e-01  2.0105e-03  1.9554e-03  2.1623e-03  2.7269e-03  6.2879e-03  0:08:50  325

 Reversed flow on 3293 faces (80.5% area) of pressure-outlet 24.

 Reversed flow on 1456 faces (69.7% area) of pressure-outlet 25.
   176  4.6773e-01  2.0289e-03  1.9649e-03  2.1649e-03  2.8195e-03  6.5134e-03  0:09:12  324

 Reversed flow on 3318 faces (81.0% area) of pressure-outlet 24.

 Reversed flow on 1463 faces (70.0% area) of pressure-outlet 25.

  iter  continuity  x-velocity  y-velocity  z-velocity           k     epsilon     time/iter
   177  4.6919e-01  2.0506e-03  1.9812e-03  2.1868e-03  2.8197e-03  6.7751e-03  0:08:25  323

 Reversed flow on 3339 faces (81.3% area) of pressure-outlet 24.

 Reversed flow on 1480 faces (70.8% area) of pressure-outlet 25.
   178  4.7205e-01  2.0828e-03  2.0093e-03  2.2268e-03  2.8752e-03  6.9279e-03  0:08:52  322

 Reversed flow on 3332 faces (81.2% area) of pressure-outlet 24.

 Reversed flow on 1483 faces (71.0% area) of pressure-outlet 25.
   179  4.7577e-01  2.1222e-03  2.0536e-03  2.2838e-03  2.8375e-03  6.7020e-03  0:09:12  321

 Reversed flow on 3311 faces (80.7% area) of pressure-outlet 24.

 Reversed flow on 1499 faces (71.7% area) of pressure-outlet 25.
   180  4.8192e-01  2.1738e-03  2.1050e-03  2.3487e-03  2.9293e-03  6.6109e-03  0:09:29  320

 Reversed flow on 3278 faces (80.1% area) of pressure-outlet 24.

 Reversed flow on 1514 faces (72.4% area) of pressure-outlet 25.
   181  4.8855e-01  2.2250e-03  2.1584e-03  2.4172e-03  2.9981e-03  7.0802e-03  0:08:37  319

 Reversed flow on 3240 faces (79.4% area) of pressure-outlet 24.

 Reversed flow on 1531 faces (73.2% area) of pressure-outlet 25.
   182  4.9774e-01  2.2762e-03  2.2206e-03  2.4912e-03  3.1950e-03  7.8528e-03  0:09:00  318

 Reversed flow on 3206 faces (78.9% area) of pressure-outlet 24.

 Reversed flow on 1549 faces (74.0% area) of pressure-outlet 25.
   183  5.0693e-01  2.3273e-03  2.2821e-03  2.5640e-03  3.3113e-03  8.7354e-03  0:08:14  317

 Reversed flow on 3179 faces (78.5% area) of pressure-outlet 24.

 Reversed flow on 1562 faces (74.6% area) of pressure-outlet 25.
   184  5.1676e-01  2.3722e-03  2.3431e-03  2.6252e-03  3.4376e-03  9.3185e-03  0:08:40  316

 Reversed flow on 3166 faces (78.1% area) of pressure-outlet 24.

 Reversed flow on 1564 faces (74.8% area) of pressure-outlet 25.
   185  5.2323e-01  2.4093e-03  2.3903e-03  2.6685e-03  3.5078e-03  9.5807e-03  0:07:58  315

 Reversed flow on 3144 faces (77.5% area) of pressure-outlet 24.

 Reversed flow on 1566 faces (74.8% area) of pressure-outlet 25.
   186  5.2616e-01  2.4494e-03  2.4278e-03  2.7057e-03  3.5458e-03  9.5999e-03  0:08:27  314

 Reversed flow on 3165 faces (77.9% area) of pressure-outlet 24.

 Reversed flow on 1566 faces (74.9% area) of pressure-outlet 25.
   187  5.2835e-01  2.4974e-03  2.4625e-03  2.7477e-03  3.6164e-03  1.0228e-02  0:07:47  313

 Reversed flow on 3194 faces (78.2% area) of pressure-outlet 24.

 Reversed flow on 1562 faces (74.7% area) of pressure-outlet 25.

  iter  continuity  x-velocity  y-velocity  z-velocity           k     epsilon     time/iter
   188  5.3351e-01  2.5323e-03  2.5020e-03  2.7869e-03  3.5753e-03  9.4471e-03  0:08:17  312

 Reversed flow on 3196 faces (78.5% area) of pressure-outlet 24.

 Reversed flow on 1543 faces (73.9% area) of pressure-outlet 25.
   189  5.3874e-01  2.5673e-03  2.5230e-03  2.8223e-03  3.6399e-03  9.2161e-03  0:08:41  311

 Reversed flow on 3250 faces (79.9% area) of pressure-outlet 24.

 Reversed flow on 1503 faces (72.0% area) of pressure-outlet 25.
   190  5.4195e-01  2.5852e-03  2.5544e-03  2.8618e-03  3.7271e-03  9.1907e-03  0:07:57  310

 Reversed flow on 3311 faces (81.5% area) of pressure-outlet 24.

 Reversed flow on 1417 faces (68.1% area) of pressure-outlet 25.
   191  5.4536e-01  2.5995e-03  2.5915e-03  2.9011e-03  4.0160e-03  1.0253e-02  0:07:22  309

 Reversed flow on 3381 faces (83.2% area) of pressure-outlet 24.

 Reversed flow on 1303 faces (62.8% area) of pressure-outlet 25.
[...]

 turbulent viscosity limited to viscosity ratio of 1.000000e+05 in 1392 cells 

 Reversed flow on 3488 faces (86.5% area) of pressure-outlet 24.

 Reversed flow on 1498 faces (71.8% area) of pressure-outlet 25.
   434  4.5260e-01  1.7748e-03  1.7472e-03  1.9609e-03  5.4863e-03  6.9711e-03  0:01:54   66

 turbulent viscosity limited to viscosity ratio of 1.000000e+05 in 1699 cells 

 Reversed flow on 3502 faces (86.4% area) of pressure-outlet 24.

 Reversed flow on 1507 faces (72.2% area) of pressure-outlet 25.
   435  4.5132e-01  1.7925e-03  1.7551e-03  1.9838e-03  1.3080e-02  1.0004e-02  0:01:42   65

 turbulent viscosity limited to viscosity ratio of 1.000000e+05 in 342 cells 

 Reversed flow on 3527 faces (86.4% area) of pressure-outlet 24.

 Reversed flow on 1513 faces (72.5% area) of pressure-outlet 25.
   436  4.5334e-01  1.8033e-03  1.7652e-03  1.9895e-03  1.1499e-02  9.3329e-03  0:01:46   64

 turbulent viscosity limited to viscosity ratio of 1.000000e+05 in 120 cells 

 Reversed flow on 3574 faces (86.4% area) of pressure-outlet 24.

 Reversed flow on 1519 faces (72.7% area) of pressure-outlet 25.
   437  4.5623e-01  1.7849e-03  1.7528e-03  1.9693e-03  5.9170e-03  6.8214e-03  0:01:36   63

 turbulent viscosity limited to viscosity ratio of 1.000000e+05 in 14 cells 

 Reversed flow on 3558 faces (85.8% area) of pressure-outlet 24.

 Reversed flow on 1530 faces (73.3% area) of pressure-outlet 25.
   438  4.5978e-01  1.7869e-03  1.7389e-03  1.9541e-03  3.8674e-03  5.8864e-03  0:01:41   62

 Reversed flow on 3544 faces (85.6% area) of pressure-outlet 24.

 Reversed flow on 1540 faces (73.7% area) of pressure-outlet 25.
   439  4.6310e-01  1.7925e-03  1.7489e-03  1.9611e-03  3.1844e-03  6.1307e-03  0:01:44   61

 Reversed flow on 3527 faces (85.6% area) of pressure-outlet 24.

 Reversed flow on 1551 faces (74.2% area) of pressure-outlet 25.
   440  4.6670e-01  1.8243e-03  1.7677e-03  1.9797e-03  2.8027e-03  6.2879e-03  0:01:46   60

 Reversed flow on 3400 faces (83.1% area) of pressure-outlet 24.

 Reversed flow on 1557 faces (74.5% area) of pressure-outlet 25.

  iter  continuity  x-velocity  y-velocity  z-velocity           k     epsilon     time/iter
   441  4.7169e-01  1.8644e-03  1.8022e-03  1.9984e-03  2.6951e-03  6.4225e-03  0:01:47   59

 Reversed flow on 3222 faces (79.2% area) of pressure-outlet 24.

 Reversed flow on 1569 faces (75.0% area) of pressure-outlet 25.
   442  4.7555e-01  1.9065e-03  1.8303e-03  2.0151e-03  2.5650e-03  6.3449e-03  0:01:35   58

 Reversed flow on 3054 faces (75.9% area) of pressure-outlet 24.

 Reversed flow on 1574 faces (75.1% area) of pressure-outlet 25.
   443  4.7647e-01  1.9222e-03  1.8557e-03  2.0220e-03  2.5711e-03  6.4161e-03  0:01:38   57

 Reversed flow on 2919 faces (73.3% area) of pressure-outlet 24.

 Reversed flow on 1590 faces (75.8% area) of pressure-outlet 25.
   444  4.7603e-01  1.9274e-03  1.8709e-03  2.0293e-03  2.5514e-03  6.7264e-03  0:01:51   56

 Reversed flow on 2807 faces (70.9% area) of pressure-outlet 24.

 Reversed flow on 1595 faces (76.0% area) of pressure-outlet 25.
   445  4.7604e-01  1.9458e-03  1.8830e-03  2.0307e-03  2.5261e-03  6.3145e-03  0:01:38   55

 Reversed flow on 2750 faces (70.0% area) of pressure-outlet 24.

 Reversed flow on 1592 faces (75.9% area) of pressure-outlet 25.
   446  4.7700e-01  1.9555e-03  1.8938e-03  2.0234e-03  2.4729e-03  6.3882e-03  0:01:38   54

 Reversed flow on 2727 faces (69.9% area) of pressure-outlet 24.

 Reversed flow on 1586 faces (75.6% area) of pressure-outlet 25.
   447  4.7769e-01  1.9220e-03  1.8935e-03  2.0026e-03  2.4798e-03  6.2440e-03  0:01:38   53

 turbulent viscosity limited to viscosity ratio of 1.000000e+05 in 3 cells 

 Reversed flow on 2744 faces (70.6% area) of pressure-outlet 24.

 Reversed flow on 1576 faces (75.1% area) of pressure-outlet 25.
   448  4.7449e-01  1.9012e-03  1.8855e-03  1.9855e-03  2.5373e-03  6.7155e-03  0:01:28   52

 turbulent viscosity limited to viscosity ratio of 1.000000e+05 in 120 cells 

 Reversed flow on 2776 faces (71.5% area) of pressure-outlet 24.

 Reversed flow on 1572 faces (75.0% area) of pressure-outlet 25.
   449  4.7155e-01  1.8929e-03  1.9154e-03  1.9961e-03  2.5793e-03  6.3405e-03  0:01:29   51

 turbulent viscosity limited to viscosity ratio of 1.000000e+05 in 71 cells 

 Reversed flow on 2847 faces (73.5% area) of pressure-outlet 24.

 Reversed flow on 1566 faces (74.7% area) of pressure-outlet 25.
   450  4.7290e-01  1.9073e-03  1.9460e-03  2.0178e-03  3.2792e-03  6.9184e-03  0:01:30   50

 turbulent viscosity limited to viscosity ratio of 1.000000e+05 in 54 cells 

 Reversed flow on 2924 faces (75.3% area) of pressure-outlet 24.

 Reversed flow on 1552 faces (74.1% area) of pressure-outlet 25.
   451  4.7591e-01  1.9116e-03  1.9634e-03  2.0371e-03  3.7634e-03  6.9919e-03  0:01:20   49

 turbulent viscosity limited to viscosity ratio of 1.000000e+05 in 13 cells 

 Reversed flow on 3017 faces (76.9% area) of pressure-outlet 24.

 Reversed flow on 1537 faces (73.5% area) of pressure-outlet 25.

  iter  continuity  x-velocity  y-velocity  z-velocity           k     epsilon     time/iter
   452  4.7692e-01  1.9358e-03  1.9556e-03  2.0598e-03  3.3638e-03  7.5159e-03  0:01:22   48

 Reversed flow on 3099 faces (78.7% area) of pressure-outlet 24.

 Reversed flow on 1534 faces (73.3% area) of pressure-outlet 25.
   453  4.7807e-01  1.9678e-03  1.9690e-03  2.0941e-03  2.9575e-03  7.0835e-03  0:01:23   47

 Reversed flow on 3148 faces (79.8% area) of pressure-outlet 24.

 Reversed flow on 1546 faces (73.8% area) of pressure-outlet 25.
   454  4.8126e-01  2.0069e-03  1.9859e-03  2.1279e-03  2.8575e-03  7.3592e-03  0:01:24   46

 Reversed flow on 3194 faces (81.1% area) of pressure-outlet 24.

 Reversed flow on 1561 faces (74.5% area) of pressure-outlet 25.
   455  4.8652e-01  2.0279e-03  2.0017e-03  2.1498e-03  2.8165e-03  7.1629e-03  0:01:14   45

 turbulent viscosity limited to viscosity ratio of 1.000000e+05 in 2 cells 

 Reversed flow on 3212 faces (81.7% area) of pressure-outlet 24.

 Reversed flow on 1569 faces (74.9% area) of pressure-outlet 25.
   456  4.9054e-01  2.0409e-03  2.0019e-03  2.1561e-03  2.8715e-03  7.6122e-03  0:01:16   44

 Reversed flow on 3192 faces (81.4% area) of pressure-outlet 24.

 Reversed flow on 1579 faces (75.4% area) of pressure-outlet 25.
   457  4.9311e-01  2.0422e-03  1.9914e-03  2.1507e-03  2.8198e-03  7.2840e-03  0:01:16   43

 Reversed flow on 3182 faces (81.4% area) of pressure-outlet 24.

 Reversed flow on 1590 faces (75.7% area) of pressure-outlet 25.
   458  4.9336e-01  2.0274e-03  1.9731e-03  2.1432e-03  2.8246e-03  7.4185e-03  0:01:17   42

 Reversed flow on 3163 faces (81.4% area) of pressure-outlet 24.

 Reversed flow on 1607 faces (76.4% area) of pressure-outlet 25.
   459  4.9171e-01  1.9978e-03  1.9772e-03  2.1403e-03  2.7833e-03  7.0683e-03  0:01:08   41

 Reversed flow on 3161 faces (81.5% area) of pressure-outlet 24.

 Reversed flow on 1623 faces (77.0% area) of pressure-outlet 25.
   460  4.9195e-01  2.0003e-03  1.9930e-03  2.1461e-03  2.8553e-03  7.3357e-03  0:01:09   40

 Reversed flow on 3182 faces (82.1% area) of pressure-outlet 24.

 Reversed flow on 1630 faces (77.2% area) of pressure-outlet 25.
   461  4.9355e-01  2.0254e-03  2.0145e-03  2.1629e-03  2.8205e-03  7.0510e-03  0:01:09   39

 Reversed flow on 3203 faces (82.6% area) of pressure-outlet 24.

 Reversed flow on 1635 faces (77.4% area) of pressure-outlet 25.
   462  4.9586e-01  2.0824e-03  2.0338e-03  2.1819e-03  2.9168e-03  7.4888e-03  0:01:02   38

 Reversed flow on 3213 faces (82.8% area) of pressure-outlet 24.

 Reversed flow on 1637 faces (77.5% area) of pressure-outlet 25.

  iter  continuity  x-velocity  y-velocity  z-velocity           k     epsilon     time/iter
   463  4.9977e-01  2.1372e-03  2.0581e-03  2.2060e-03  2.8792e-03  7.3034e-03  0:01:03   37

 Reversed flow on 3208 faces (82.6% area) of pressure-outlet 24.

 Reversed flow on 1644 faces (77.8% area) of pressure-outlet 25.
   464  5.0633e-01  2.1896e-03  2.0814e-03  2.2300e-03  2.9305e-03  7.6217e-03  0:01:03   36

 Reversed flow on 3204 faces (82.4% area) of pressure-outlet 24.

 Reversed flow on 1637 faces (77.6% area) of pressure-outlet 25.
   465  5.1355e-01  2.2260e-03  2.1038e-03  2.2424e-03  2.8391e-03  7.4384e-03  0:01:03   35

 Reversed flow on 3200 faces (82.3% area) of pressure-outlet 24.

 Reversed flow on 1620 faces (76.8% area) of pressure-outlet 25.
   466  5.2014e-01  2.2455e-03  2.1109e-03  2.2361e-03  2.8280e-03  7.6974e-03  0:00:56   34

 Reversed flow on 3195 faces (82.3% area) of pressure-outlet 24.

 Reversed flow on 1561 faces (74.0% area) of pressure-outlet 25.
   467  5.2455e-01  2.2407e-03  2.1125e-03  2.2252e-03  2.6671e-03  7.3020e-03  0:00:50   33

 Reversed flow on 3191 faces (82.3% area) of pressure-outlet 24.

 Reversed flow on 1543 faces (73.3% area) of pressure-outlet 25.
   468  5.2747e-01  2.2098e-03  2.1050e-03  2.2088e-03  2.6281e-03  7.1854e-03  0:00:52   32

 Reversed flow on 3189 faces (82.3% area) of pressure-outlet 24.

 Reversed flow on 1558 faces (74.1% area) of pressure-outlet 25.
   469  5.2749e-01  2.1644e-03  2.0929e-03  2.1886e-03  2.5070e-03  6.8116e-03  0:00:46   31

 Reversed flow on 3158 faces (81.5% area) of pressure-outlet 24.

 Reversed flow on 1562 faces (74.3% area) of pressure-outlet 25.
   470  5.2418e-01  2.1212e-03  2.0753e-03  2.1662e-03  2.5151e-03  6.6743e-03  0:00:48   30

 Reversed flow on 3124 faces (80.6% area) of pressure-outlet 24.

 Reversed flow on 1568 faces (74.8% area) of pressure-outlet 25.
   471  5.1897e-01  2.0920e-03  2.0589e-03  2.1477e-03  2.4531e-03  6.3010e-03  0:00:43   29

 Reversed flow on 3115 faces (80.5% area) of pressure-outlet 24.

 Reversed flow on 1571 faces (74.9% area) of pressure-outlet 25.
   472  5.1524e-01  2.0770e-03  2.0494e-03  2.1392e-03  2.4835e-03  6.1157e-03  0:00:39   28

 Reversed flow on 3119 faces (80.7% area) of pressure-outlet 24.

 Reversed flow on 1571 faces (74.9% area) of pressure-outlet 25.
   473  5.1350e-01  2.0672e-03  2.0402e-03  2.1275e-03  2.4807e-03  6.0619e-03  0:00:41   27

 Reversed flow on 3130 faces (80.7% area) of pressure-outlet 24.

 Reversed flow on 1572 faces (75.0% area) of pressure-outlet 25.

  iter  continuity  x-velocity  y-velocity  z-velocity           k     epsilon     time/iter
   474  5.1238e-01  2.0478e-03  2.0233e-03  2.1004e-03  2.4880e-03  5.8450e-03  0:00:36   26

 Reversed flow on 3173 faces (81.0% area) of pressure-outlet 24.

 Reversed flow on 1587 faces (75.7% area) of pressure-outlet 25.
   475  5.1021e-01  2.0303e-03  1.9869e-03  2.0592e-03  2.4318e-03  5.9455e-03  0:00:38   25

 Reversed flow on 3117 faces (78.2% area) of pressure-outlet 24.

 Reversed flow on 1599 faces (76.2% area) of pressure-outlet 25.
   476  5.0552e-01  1.9976e-03  1.9494e-03  2.0120e-03  2.3404e-03  5.6667e-03  0:00:34   24

 Reversed flow on 2982 faces (74.3% area) of pressure-outlet 24.

 Reversed flow on 1608 faces (76.6% area) of pressure-outlet 25.
   477  4.9772e-01  1.9623e-03  1.9032e-03  1.9666e-03  2.2636e-03  5.8153e-03  0:00:35   23

 Reversed flow on 2934 faces (72.7% area) of pressure-outlet 24.

 Reversed flow on 1625 faces (77.3% area) of pressure-outlet 25.
   478  4.8975e-01  1.9201e-03  1.8677e-03  1.9326e-03  2.1871e-03  5.5639e-03  0:00:36   22

 Reversed flow on 2915 faces (72.2% area) of pressure-outlet 24.

 Reversed flow on 1649 faces (78.2% area) of pressure-outlet 25.
   479  4.8319e-01  1.8978e-03  1.8396e-03  1.9147e-03  2.2323e-03  5.9181e-03  0:00:36   21

 Reversed flow on 3021 faces (74.6% area) of pressure-outlet 24.

 Reversed flow on 1664 faces (78.9% area) of pressure-outlet 25.
   480  4.7835e-01  1.8875e-03  1.8323e-03  1.9199e-03  2.1944e-03  5.6080e-03  0:00:31   20

 turbulent viscosity limited to viscosity ratio of 1.000000e+05 in 1 cells 

 Reversed flow on 3138 faces (77.4% area) of pressure-outlet 24.

 Reversed flow on 1676 faces (79.4% area) of pressure-outlet 25.
   481  4.7705e-01  1.8962e-03  1.8389e-03  1.9369e-03  2.3274e-03  5.8304e-03  0:00:31   19

 turbulent viscosity limited to viscosity ratio of 1.000000e+05 in 26 cells 

 Reversed flow on 3204 faces (79.1% area) of pressure-outlet 24.

 Reversed flow on 1680 faces (79.6% area) of pressure-outlet 25.
   482  4.7847e-01  1.9019e-03  1.8581e-03  1.9606e-03  2.3924e-03  5.6986e-03  0:00:31   18

 turbulent viscosity limited to viscosity ratio of 1.000000e+05 in 17 cells 

 Reversed flow on 3226 faces (79.7% area) of pressure-outlet 24.

 Reversed flow on 1683 faces (79.7% area) of pressure-outlet 25.
   483  4.8153e-01  1.9078e-03  1.8723e-03  1.9783e-03  2.5862e-03  5.7823e-03  0:00:30   17

 turbulent viscosity limited to viscosity ratio of 1.000000e+05 in 6 cells 

 Reversed flow on 3253 faces (80.2% area) of pressure-outlet 24.

 Reversed flow on 1683 faces (79.7% area) of pressure-outlet 25.
   484  4.8221e-01  1.9038e-03  1.8773e-03  1.9834e-03  2.5301e-03  5.6013e-03  0:00:26   16

 Reversed flow on 3283 faces (81.2% area) of pressure-outlet 24.

 Reversed flow on 1676 faces (79.5% area) of pressure-outlet 25.

  iter  continuity  x-velocity  y-velocity  z-velocity           k     epsilon     time/iter
   485  4.8113e-01  1.8873e-03  1.8738e-03  1.9772e-03  2.4705e-03  5.4184e-03  0:00:22   15

 Reversed flow on 3313 faces (82.1% area) of pressure-outlet 24.

 Reversed flow on 1674 faces (79.4% area) of pressure-outlet 25.
   486  4.7893e-01  1.8746e-03  1.8620e-03  1.9613e-03  2.3649e-03  5.3701e-03  0:00:22   14

 Reversed flow on 3347 faces (83.0% area) of pressure-outlet 24.

 Reversed flow on 1659 faces (78.8% area) of pressure-outlet 25.
   487  4.7659e-01  1.8647e-03  1.8538e-03  1.9469e-03  2.3359e-03  5.1182e-03  0:00:19   13

 turbulent viscosity limited to viscosity ratio of 1.000000e+05 in 4 cells 

 Reversed flow on 3361 faces (83.4% area) of pressure-outlet 24.

 Reversed flow on 1657 faces (78.6% area) of pressure-outlet 25.
   488  4.7562e-01  1.8656e-03  1.8469e-03  1.9354e-03  2.3407e-03  5.4225e-03  0:00:17   12

 turbulent viscosity limited to viscosity ratio of 1.000000e+05 in 6 cells 

 Reversed flow on 3371 faces (83.7% area) of pressure-outlet 24.

 Reversed flow on 1659 faces (78.8% area) of pressure-outlet 25.
   489  4.7723e-01  1.8701e-03  1.8571e-03  1.9334e-03  2.3224e-03  5.1376e-03  0:00:17   11

 turbulent viscosity limited to viscosity ratio of 1.000000e+05 in 8 cells 

 Reversed flow on 3383 faces (83.9% area) of pressure-outlet 24.

 Reversed flow on 1656 faces (78.6% area) of pressure-outlet 25.
   490  4.7929e-01  1.8837e-03  1.8626e-03  1.9339e-03  2.3844e-03  5.4673e-03  0:00:14   10

 turbulent viscosity limited to viscosity ratio of 1.000000e+05 in 7 cells 

 Reversed flow on 3375 faces (83.8% area) of pressure-outlet 24.

 Reversed flow on 1653 faces (78.4% area) of pressure-outlet 25.
   491  4.8121e-01  1.8832e-03  1.8666e-03  1.9385e-03  2.2938e-03  4.9701e-03  0:00:14    9

 turbulent viscosity limited to viscosity ratio of 1.000000e+05 in 1 cells 

 Reversed flow on 3346 faces (83.2% area) of pressure-outlet 24.

 Reversed flow on 1652 faces (78.4% area) of pressure-outlet 25.
   492  4.8377e-01  1.8810e-03  1.8470e-03  1.9323e-03  2.3117e-03  5.2514e-03  0:00:11    8

 Reversed flow on 3249 faces (81.9% area) of pressure-outlet 24.

 Reversed flow on 1656 faces (78.6% area) of pressure-outlet 25.
   493  4.8496e-01  1.8587e-03  1.8232e-03  1.9183e-03  2.1096e-03  4.4511e-03  0:00:11    7

 Reversed flow on 3162 faces (80.4% area) of pressure-outlet 24.

 Reversed flow on 1662 faces (78.9% area) of pressure-outlet 25.
   494  4.8256e-01  1.8300e-03  1.7925e-03  1.8991e-03  2.1468e-03  4.6254e-03  0:00:10    6

 turbulent viscosity limited to viscosity ratio of 1.000000e+05 in 6 cells 

 Reversed flow on 3144 faces (79.8% area) of pressure-outlet 24.

 Reversed flow on 1658 faces (78.8% area) of pressure-outlet 25.
   495  4.7738e-01  1.7995e-03  1.7724e-03  1.8807e-03  2.0566e-03  4.2882e-03  0:00:09    5

 turbulent viscosity limited to viscosity ratio of 1.000000e+05 in 17 cells 

 Reversed flow on 3186 faces (80.5% area) of pressure-outlet 24.

 Reversed flow on 1639 faces (78.0% area) of pressure-outlet 25.

  iter  continuity  x-velocity  y-velocity  z-velocity           k     epsilon     time/iter
   496  4.7163e-01  1.7797e-03  1.7569e-03  1.8636e-03  2.1872e-03  4.6770e-03  0:00:07    4

 Reversed flow on 3207 faces (81.0% area) of pressure-outlet 24.

 Reversed flow on 1620 faces (77.2% area) of pressure-outlet 25.
   497  4.6763e-01  1.7720e-03  1.7542e-03  1.8555e-03  2.2824e-03  4.8626e-03  0:00:05    3

 Reversed flow on 3230 faces (81.6% area) of pressure-outlet 24.

 Reversed flow on 1611 faces (76.8% area) of pressure-outlet 25.
   498  4.6640e-01  1.7855e-03  1.7756e-03  1.8668e-03  2.3664e-03  5.2530e-03  0:00:03    2

 Reversed flow on 3235 faces (81.8% area) of pressure-outlet 24.

 Reversed flow on 1578 faces (75.4% area) of pressure-outlet 25.
   499  4.6911e-01  1.8255e-03  1.8161e-03  1.9031e-03  2.4068e-03  5.5910e-03  0:00:02    1

 Reversed flow on 3242 faces (81.9% area) of pressure-outlet 24.

 Reversed flow on 1564 faces (74.8% area) of pressure-outlet 25.
   500  4.7566e-01  1.8834e-03  1.8793e-03  1.9582e-03  2.4880e-03  5.5921e-03  0:00:00    0

> ;/solve/set/time-step 0.01
;solve/set/data-sampling y 1 y y
;/solve/dual-time-iterate 5000 10

adjoint/                file/                   report/
define/                 mesh/                   solve/
display/                parallel/               surface/
exit                    plot/                   views/

> ; set save
;no .h5 format

adjoint/                file/                   report/
define/                 mesh/                   solve/
display/                parallel/               surface/
exit                    plot/                   views/

> /file/cff-files? n

> ;/file/autosave/root-name "Me_317"
/file/write-case-data "E:\LGF\Sim\task\0826_1\P_85\FluentData_M100_-3200_85.cas"
Writing "E:\LGF\Sim\task\0826_1\P_85\FluentData_M100_-3200_85.cas"...

    6990 mixed cells, zone 15, binary.
  565192 mixed cells, zone 16, binary.
  128494 mixed cells, zone 17, binary.
   99631 mixed cells, zone 18, binary.
  112217 mixed cells, zone 19, binary.
    6990 cell partition ids, zone 15, 100 partitions, binary.
  565192 cell partition ids, zone 16, 100 partitions, binary.
  128494 cell partition ids, zone 17, 100 partitions, binary.
   99631 cell partition ids, zone 18, 100 partitions, binary.
  112217 cell partition ids, zone 19, 100 partitions, binary.
    3768 mixed wall faces, zone  1, binary.
   34998 triangular wall faces, zone  2, binary.
    6023 triangular wall faces, zone  3, binary.
   11483 triangular wall faces, zone  4, binary.
    5640 triangular wall faces, zone  5, binary.
    2602 triangular interior faces, zone  6, binary.
     310 quadrilateral interior faces, zone  7, binary.
    2662 mixed interior faces, zone  8, binary.
    2776 mixed interior faces, zone  9, binary.
   18821 mixed interior faces, zone 10, binary.
 1189685 mixed interior faces, zone 11, binary.
  263371 mixed interior faces, zone 12, binary.
  203749 mixed interior faces, zone 13, binary.
  217848 triangular interior faces, zone 14, binary.
     637 triangular pressure-outlet faces, zone 22, binary.
     100 quadrilateral velocity-inlet faces, zone 23, binary.
    4385 mixed pressure-outlet faces, zone 24, binary.
    2646 mixed pressure-outlet faces, zone 25, binary.
    1906 triangular velocity-inlet faces, zone 26, binary.
    4293 triangular wall faces, zone 27, binary.
    4279 triangular wall faces, zone 28, binary.
  252813 nodes, binary.
  252813 node flags, binary.
Done.


Writing "E:\LGF\Sim\task\0826_1\P_85\FluentData_M100_-3200_85.dat"...

Done.



> ;/display/save-picture "E:\LGF\Sim\task\0826_1\P_85\FluentData_M100_-3200_85jpg"
/exit/c