
              Welcome to ANSYS Fluent 2020 R1

              Copyright 1987-2020 ANSYS, Inc. All Rights Reserved.
              Unauthorized use, distribution or duplication is prohibited.
              This product is subject to U.S. laws governing export and re-export.
              For full Legal Notice, see documentation.

Build Time: Dec  2 2019 14:15:26 EST  Build Id: 10114  
 
Host spawning Node 0 on machine "DESKTOP-8RUTNJQ" (win64).
WARNING: No cached password or password provided.
         use '-pass' or '-cache' to provide password
Host 0 -- ip 192.168.161.95 -- ranks 0 - 99

 host | 0
======|======
    0 : SHM

 Prot -  All Intra-node communication is: SHM


-------------------------------------------------------------------------------
ID    Hostname         Core     O.S.         PID     Vendor        
-------------------------------------------------------------------------------
n99   DESKTOP-8RUTNJQ  100/128  Windows-x64  103136  AMD EPYC 7702 
n98   DESKTOP-8RUTNJQ  99/128   Windows-x64  101172  AMD EPYC 7702 
n97   DESKTOP-8RUTNJQ  98/128   Windows-x64  102536  AMD EPYC 7702 
n96   DESKTOP-8RUTNJQ  97/128   Windows-x64  103484  AMD EPYC 7702 
n95   DESKTOP-8RUTNJQ  96/128   Windows-x64  103544  AMD EPYC 7702 
n94   DESKTOP-8RUTNJQ  95/128   Windows-x64  51888   AMD EPYC 7702 
n93   DESKTOP-8RUTNJQ  94/128   Windows-x64  11944   AMD EPYC 7702 
n92   DESKTOP-8RUTNJQ  93/128   Windows-x64  106052  AMD EPYC 7702 
n91   DESKTOP-8RUTNJQ  92/128   Windows-x64  85480   AMD EPYC 7702 
n90   DESKTOP-8RUTNJQ  91/128   Windows-x64  108360  AMD EPYC 7702 
n89   DESKTOP-8RUTNJQ  90/128   Windows-x64  101824  AMD EPYC 7702 
n88   DESKTOP-8RUTNJQ  89/128   Windows-x64  107684  AMD EPYC 7702 
n87   DESKTOP-8RUTNJQ  88/128   Windows-x64  109376  AMD EPYC 7702 
n86   DESKTOP-8RUTNJQ  87/128   Windows-x64  107608  AMD EPYC 7702 
n85   DESKTOP-8RUTNJQ  86/128   Windows-x64  102172  AMD EPYC 7702 
n84   DESKTOP-8RUTNJQ  85/128   Windows-x64  104424  AMD EPYC 7702 
n83   DESKTOP-8RUTNJQ  84/128   Windows-x64  104280  AMD EPYC 7702 
n82   DESKTOP-8RUTNJQ  83/128   Windows-x64  106664  AMD EPYC 7702 
n81   DESKTOP-8RUTNJQ  82/128   Windows-x64  105788  AMD EPYC 7702 
n80   DESKTOP-8RUTNJQ  81/128   Windows-x64  104164  AMD EPYC 7702 
-------------------------------------------------------------------------------
ID    Hostname         Core     O.S.         PID     Vendor        
-------------------------------------------------------------------------------
n79   DESKTOP-8RUTNJQ  80/128   Windows-x64  24516   AMD EPYC 7702 
n78   DESKTOP-8RUTNJQ  79/128   Windows-x64  83444   AMD EPYC 7702 
n77   DESKTOP-8RUTNJQ  78/128   Windows-x64  103452  AMD EPYC 7702 
n76   DESKTOP-8RUTNJQ  77/128   Windows-x64  106468  AMD EPYC 7702 
n75   DESKTOP-8RUTNJQ  76/128   Windows-x64  106928  AMD EPYC 7702 
n74   DESKTOP-8RUTNJQ  75/128   Windows-x64  104044  AMD EPYC 7702 
n73   DESKTOP-8RUTNJQ  74/128   Windows-x64  104692  AMD EPYC 7702 
n72   DESKTOP-8RUTNJQ  73/128   Windows-x64  106932  AMD EPYC 7702 
n71   DESKTOP-8RUTNJQ  72/128   Windows-x64  99140   AMD EPYC 7702 
n70   DESKTOP-8RUTNJQ  71/128   Windows-x64  106032  AMD EPYC 7702 
n69   DESKTOP-8RUTNJQ  70/128   Windows-x64  107884  AMD EPYC 7702 
n68   DESKTOP-8RUTNJQ  69/128   Windows-x64  106952  AMD EPYC 7702 
n67   DESKTOP-8RUTNJQ  68/128   Windows-x64  101648  AMD EPYC 7702 
n66   DESKTOP-8RUTNJQ  67/128   Windows-x64  84944   AMD EPYC 7702 
n65   DESKTOP-8RUTNJQ  66/128   Windows-x64  102304  AMD EPYC 7702 
n64   DESKTOP-8RUTNJQ  65/128   Windows-x64  179220  AMD EPYC 7702 
n63   DESKTOP-8RUTNJQ  64/128   Windows-x64  100332  AMD EPYC 7702 
n62   DESKTOP-8RUTNJQ  63/128   Windows-x64  106512  AMD EPYC 7702 
n61   DESKTOP-8RUTNJQ  62/128   Windows-x64  99336   AMD EPYC 7702 
n60   DESKTOP-8RUTNJQ  61/128   Windows-x64  98252   AMD EPYC 7702 
-------------------------------------------------------------------------------
ID    Hostname         Core     O.S.         PID     Vendor        
-------------------------------------------------------------------------------
n59   DESKTOP-8RUTNJQ  60/128   Windows-x64  14800   AMD EPYC 7702 
n58   DESKTOP-8RUTNJQ  59/128   Windows-x64  106304  AMD EPYC 7702 
n57   DESKTOP-8RUTNJQ  58/128   Windows-x64  108508  AMD EPYC 7702 
n56   DESKTOP-8RUTNJQ  57/128   Windows-x64  102812  AMD EPYC 7702 
n55   DESKTOP-8RUTNJQ  56/128   Windows-x64  105868  AMD EPYC 7702 
n54   DESKTOP-8RUTNJQ  55/128   Windows-x64  105992  AMD EPYC 7702 
n53   DESKTOP-8RUTNJQ  54/128   Windows-x64  107312  AMD EPYC 7702 
n52   DESKTOP-8RUTNJQ  53/128   Windows-x64  180596  AMD EPYC 7702 
n51   DESKTOP-8RUTNJQ  52/128   Windows-x64  104568  AMD EPYC 7702 
n50   DESKTOP-8RUTNJQ  51/128   Windows-x64  101796  AMD EPYC 7702 
n49   DESKTOP-8RUTNJQ  50/128   Windows-x64  179272  AMD EPYC 7702 
n48   DESKTOP-8RUTNJQ  49/128   Windows-x64  105524  AMD EPYC 7702 
n47   DESKTOP-8RUTNJQ  48/128   Windows-x64  106896  AMD EPYC 7702 
n46   DESKTOP-8RUTNJQ  47/128   Windows-x64  105804  AMD EPYC 7702 
n45   DESKTOP-8RUTNJQ  46/128   Windows-x64  104848  AMD EPYC 7702 
n44   DESKTOP-8RUTNJQ  45/128   Windows-x64  104548  AMD EPYC 7702 
n43   DESKTOP-8RUTNJQ  44/128   Windows-x64  104596  AMD EPYC 7702 
n42   DESKTOP-8RUTNJQ  43/128   Windows-x64  106180  AMD EPYC 7702 
n41   DESKTOP-8RUTNJQ  42/128   Windows-x64  105172  AMD EPYC 7702 
n40   DESKTOP-8RUTNJQ  41/128   Windows-x64  104108  AMD EPYC 7702 
-------------------------------------------------------------------------------
ID    Hostname         Core     O.S.         PID     Vendor        
-------------------------------------------------------------------------------
n39   DESKTOP-8RUTNJQ  40/128   Windows-x64  106844  AMD EPYC 7702 
n38   DESKTOP-8RUTNJQ  39/128   Windows-x64  82640   AMD EPYC 7702 
n37   DESKTOP-8RUTNJQ  38/128   Windows-x64  80732   AMD EPYC 7702 
n36   DESKTOP-8RUTNJQ  37/128   Windows-x64  106904  AMD EPYC 7702 
n35   DESKTOP-8RUTNJQ  36/128   Windows-x64  178216  AMD EPYC 7702 
n34   DESKTOP-8RUTNJQ  35/128   Windows-x64  100816  AMD EPYC 7702 
n33   DESKTOP-8RUTNJQ  34/128   Windows-x64  95896   AMD EPYC 7702 
n32   DESKTOP-8RUTNJQ  33/128   Windows-x64  25364   AMD EPYC 7702 
n31   DESKTOP-8RUTNJQ  32/128   Windows-x64  97768   AMD EPYC 7702 
n30   DESKTOP-8RUTNJQ  31/128   Windows-x64  101028  AMD EPYC 7702 
n29   DESKTOP-8RUTNJQ  30/128   Windows-x64  104792  AMD EPYC 7702 
n28   DESKTOP-8RUTNJQ  29/128   Windows-x64  107204  AMD EPYC 7702 
n27   DESKTOP-8RUTNJQ  28/128   Windows-x64  107808  AMD EPYC 7702 
n26   DESKTOP-8RUTNJQ  27/128   Windows-x64  100580  AMD EPYC 7702 
n25   DESKTOP-8RUTNJQ  26/128   Windows-x64  103880  AMD EPYC 7702 
n24   DESKTOP-8RUTNJQ  25/128   Windows-x64  100084  AMD EPYC 7702 
n23   DESKTOP-8RUTNJQ  24/128   Windows-x64  101960  AMD EPYC 7702 
n22   DESKTOP-8RUTNJQ  23/128   Windows-x64  83956   AMD EPYC 7702 
n21   DESKTOP-8RUTNJQ  22/128   Windows-x64  103160  AMD EPYC 7702 
n20   DESKTOP-8RUTNJQ  21/128   Windows-x64  29504   AMD EPYC 7702 
-------------------------------------------------------------------------------
ID    Hostname         Core     O.S.         PID     Vendor        
-------------------------------------------------------------------------------
n19   DESKTOP-8RUTNJQ  20/128   Windows-x64  31756   AMD EPYC 7702 
n18   DESKTOP-8RUTNJQ  19/128   Windows-x64  103464  AMD EPYC 7702 
n17   DESKTOP-8RUTNJQ  18/128   Windows-x64  96020   AMD EPYC 7702 
n16   DESKTOP-8RUTNJQ  17/128   Windows-x64  105028  AMD EPYC 7702 
n15   DESKTOP-8RUTNJQ  16/128   Windows-x64  106144  AMD EPYC 7702 
n14   DESKTOP-8RUTNJQ  15/128   Windows-x64  100480  AMD EPYC 7702 
n13   DESKTOP-8RUTNJQ  14/128   Windows-x64  104160  AMD EPYC 7702 
n12   DESKTOP-8RUTNJQ  13/128   Windows-x64  1968    AMD EPYC 7702 
n11   DESKTOP-8RUTNJQ  12/128   Windows-x64  94508   AMD EPYC 7702 
n10   DESKTOP-8RUTNJQ  11/128   Windows-x64  100636  AMD EPYC 7702 
n9    DESKTOP-8RUTNJQ  10/128   Windows-x64  99468   AMD EPYC 7702 
n8    DESKTOP-8RUTNJQ  9/128    Windows-x64  102948  AMD EPYC 7702 
n7    DESKTOP-8RUTNJQ  8/128    Windows-x64  106584  AMD EPYC 7702 
n6    DESKTOP-8RUTNJQ  7/128    Windows-x64  102688  AMD EPYC 7702 
n5    DESKTOP-8RUTNJQ  6/128    Windows-x64  79604   AMD EPYC 7702 
n4    DESKTOP-8RUTNJQ  5/128    Windows-x64  105776  AMD EPYC 7702 
n3    DESKTOP-8RUTNJQ  4/128    Windows-x64  105460  AMD EPYC 7702 
n2    DESKTOP-8RUTNJQ  3/128    Windows-x64  104492  AMD EPYC 7702 
n1    DESKTOP-8RUTNJQ  2/128    Windows-x64  102552  AMD EPYC 7702 
n0*   DESKTOP-8RUTNJQ  1/128    Windows-x64  102964  AMD EPYC 7702 
host  DESKTOP-8RUTNJQ           Windows-x64  102336  AMD EPYC 7702 

MPI Option Selected: ibmmpi
Selected system interconnect: default
-------------------------------------------------------------------------------



Cleanup script file is E:\LGF\Sim\Script\\cleanup-fluent-DESKTOP-8RUTNJQ-32576.bat

Reading journal file E:\LGF\Sim\task\0825_1\P_85\J_M100_85_-4400.jou...

> ;Read case
/file/read-case E:\LGF\Sim\basic_Mesh\Model_100.msh

DESKTOP-8RUTNJQ is already loaded (26.0469%).                       Process affinity not being set.

Reading "E:\LGF\Sim\basic_Mesh\Model_100.msh"...

Buffering for file scan...

  209972 nodes, binary.
   42841 nodes, binary.
    3768 mixed wall faces, zone  1, binary.
   34998 triangular wall faces, zone  2, binary.
    6023 triangular wall faces, zone  3, binary.
   11483 triangular wall faces, zone  4, binary.
    5640 triangular wall faces, zone  5, binary.
    2602 triangular interior faces, zone  6, binary.
     310 quadrilateral interior faces, zone  7, binary.
    2662 mixed interior faces, zone  8, binary.
    2776 mixed interior faces, zone  9, binary.
   18821 mixed interior faces, zone 10, binary.
 1189685 mixed interior faces, zone 11, binary.
  263371 mixed interior faces, zone 12, binary.
  203749 mixed interior faces, zone 13, binary.
  217848 triangular interior faces, zone 14, binary.
     637 triangular wall faces, zone 22, binary.
     100 quadrilateral wall faces, zone 23, binary.
    4385 mixed wall faces, zone 24, binary.
    2646 mixed wall faces, zone 25, binary.
    1906 triangular wall faces, zone 26, binary.
    4293 triangular wall faces, zone 27, binary.
    4279 triangular wall faces, zone 28, binary.
    6990 mixed cells, zone 15, binary.
  565192 mixed cells, zone 16, binary.
  128494 mixed cells, zone 17, binary.
   99631 mixed cells, zone 18, binary.
  112217 mixed cells, zone 19, binary.

Building...
     mesh
	auto partitioning mesh by Metis (fast),
	distributing mesh
		parts..................................................,
		faces..................................................,
		nodes..................................................,
		cells..................................................,
        bandwidth reduction using Reverse Cuthill-McKee: 9508/523 = 18.1797
     materials,
     interface,
     domains,
     zones,
	wall_tx_xi
	wall_xi_tx
	i2
	p2
	p1
	i1
	o1
	towparts-xi_zhui
	towparts-tc_tc
	towparts-tx_tx
	towparts-block_block
	towparts-xi_huan
	interior-towparts-xi_zhui
	interior-towparts-tc_tc
	interior-towparts-tx_tx
	interior-towparts-block_block
	interior-towparts-xi_huan
	interior-towparts-block_block-towparts-tc_tc
	interior-towparts-block_block-towparts-tx_tx
	interior-towparts-xi_huan-towparts-xi_zhui
	interior-towparts-block_block-towparts-xi_zhui
	wall-towparts-xi_zhui
	wall-towparts-tc_tc
	wall-towparts-tx_tx
	wall-towparts-block_block
	wall-towparts-xi_huan
     parallel,
Done.

> 
adjoint/                file/                   report/
define/                 mesh/                   solve/
display/                parallel/               surface/
exit                    plot/                   views/

> ; set save
;;/file/auto-save/data-frequency 2000
;;/file/auto-save/case-frequency each-time
;;/file/autosave/root-name "30du.msh.gz"

adjoint/                file/                   report/
define/                 mesh/                   solve/
display/                parallel/               surface/
exit                    plot/                   views/

> ;delete mesh interface
;/define/mesh-interface/delete contact_region

adjoint/                file/                   report/
define/                 mesh/                   solve/
display/                parallel/               surface/
exit                    plot/                   views/

> ;/define/operating-conditions/gravity/ y 0 -9.8 6

adjoint/                file/                   report/
define/                 mesh/                   solve/
display/                parallel/               surface/
exit                    plot/                   views/

> ;scale
;;/mesh/scale 0.125 0.125 0.125

adjoint/                file/                   report/
define/                 mesh/                   solve/
display/                parallel/               surface/
exit                    plot/                   views/

> ;general

adjoint/                file/                   report/
define/                 mesh/                   solve/
display/                parallel/               surface/
exit                    plot/                   views/

> /define/operating-conditions? invalid command [operating-conditions?]
y 0.0 -9.8 0.0

> 
adjoint/                file/                   report/
define/                 mesh/                   solve/
display/                parallel/               surface/
exit                    plot/                   views/

> /define/models steady? Steady solution model is already enabled.
y
invalid command [y]

> ;/define/models unsteady-1st-order? y

adjoint/                file/                   report/
define/                 mesh/                   solve/
display/                parallel/               surface/
exit                    plot/                   views/

> 
adjoint/                file/                   report/
define/                 mesh/                   solve/
display/                parallel/               surface/
exit                    plot/                   views/

> ;define viscous model

adjoint/                file/                   report/
define/                 mesh/                   solve/
display/                parallel/               surface/
exit                    plot/                   views/

> /define/models/viscous/ke-rng? y   ;;swirl?
/define/models/viscous/rng-swirl-model? yes

> 
adjoint/                file/                   report/
define/                 mesh/                   solve/
display/                parallel/               surface/
exit                    plot/                   views/

> 
adjoint/                file/                   report/
define/                 mesh/                   solve/
display/                parallel/               surface/
exit                    plot/                   views/

> ;/define/models/viscous/ke-rng-swirl-model? y
;/define/models/viscous/ke-rng/rng-swirl-model? y

adjoint/                file/                   report/
define/                 mesh/                   solve/
display/                parallel/               surface/
exit                    plot/                   views/

> 
adjoint/                file/                   report/
define/                 mesh/                   solve/
display/                parallel/               surface/
exit                    plot/                   views/

> ;/define/models/viscous/ke-realizable? y            

adjoint/                file/                   report/
define/                 mesh/                   solve/
display/                parallel/               surface/
exit                    plot/                   views/

> 
adjoint/                file/                   report/
define/                 mesh/                   solve/
display/                parallel/               surface/
exit                    plot/                   views/

> ; modify boundary-condition types

adjoint/                file/                   report/
define/                 mesh/                   solve/
display/                parallel/               surface/
exit                    plot/                   views/

> ;/define/boundary-conditions/zone-type contact_region-src wall
;/define/boundary-conditions/zone-type contact_region-trg wall
/define/boundary-conditions/zone-type i1 velocity-inlet

> /define/boundary-conditions/zone-type i2 velocity-inlet

> 
adjoint/                file/                   report/
define/                 mesh/                   solve/
display/                parallel/               surface/
exit                    plot/                   views/

> /define/boundary-conditions/zone-type o1 pressure-outlet

> /define/boundary-conditions/zone-type p1 pressure-outlet

> /define/boundary-conditions/zone-type p2 pressure-outlet

> 
adjoint/                file/                   report/
define/                 mesh/                   solve/
display/                parallel/               surface/
exit                    plot/                   views/

> ;set inlet boundary-conditions
/define/boundary-conditions/velocity-inlet (i2 i1)
i2  n n y y n 10 n 0 n n y 5 10

> /define/boundary-conditions/velocity-inlet (i2 i1)
i1  n n y y n 85 n 0 n n y 5 10

> /define/boundary-conditions/pressure-outlet (p2 p1 o1)
o1  y n -4400 n y n n y 5 10 y n n n

> /define/boundary-conditions/pressure-outlet (p2 p1 o1)
p1  y n 0 n y n n y 5 10 y n n n 

> /define/boundary-conditions/pressure-outlet (p2 p1 o1)
p2  y n 0 n y n n y 5 10 y n n n 

> 
adjoint/                file/                   report/
define/                 mesh/                   solve/
display/                parallel/               surface/
exit                    plot/                   views/

> ;;;;n y y n 0 y n 51.96 n 30 n 0 y n 1 n 1
;/define/boundary-conditions/copy-bc inlet front ()
;/define/boundary-conditions/wall lj y motion-bc-moving n n n n 11.11 1 0 0 n n 0 n 0.5

adjoint/                file/                   report/
define/                 mesh/                   solve/
display/                parallel/               surface/
exit                    plot/                   views/

> ; set solution controls
;/solve/set/p-v-coupling 21
;20: SIMPLE
;21: SIMPLEC
;22: PISO
;24: coupled
;/solve/set/under-relaxation pressure 0.5
;/solve/set/under-relaxation density 0.8
;/solve/set/under-relaxation body-force  0.8
;/solve/set/under-relaxation mom 0.5
;/solve/set/under-relaxation turb-viscosity 0.6
;/solve/set/under-relaxation k 0.6
;/solve/set/under-relaxation epsilon 0.6
;/solve/set/under-relaxation body-force 0.8 turb-viscosity 0.8 density 0.8
;/solve/set/discretization-scheme pressure 10 mom 1 k 1 epsilon 1

adjoint/                file/                   report/
define/                 mesh/                   solve/
display/                parallel/               surface/
exit                    plot/                   views/

> ;set pressure
;10:standard
;11:linear
;12:second order
;13:body force weighted
;14:presto!

adjoint/                file/                   report/
define/                 mesh/                   solve/
display/                parallel/               surface/
exit                    plot/                   views/

> ;set mom
;0:firdst order upwind
;1:second order upwind
;2:power law
;4:quick
;6:third-order muscl

adjoint/                file/                   report/
define/                 mesh/                   solve/
display/                parallel/               surface/
exit                    plot/                   views/

> ;set k
;0:firdst order upwind
;1:second order upwind
;2:power law
;4:quick
;6:third-order muscl

adjoint/                file/                   report/
define/                 mesh/                   solve/
display/                parallel/               surface/
exit                    plot/                   views/

> ;set epdst order upwind
;1:second order upwind
;2:power law
;4:silon
;0:firquick
;6:third-order muscl
;;;;;;;;;;;;;;;;;;;;;;;;;;;;;;;
;;;;;;;;;;;;;;;;;;;;;;;;;;;;;;set monitor point line surface
;;;;;;;;;;;;;;;;;;;;;;;;;;;;;;
/surface/point-surface/ cirPoint1 1.8 2 7

> /surface/point-surface/ cirPoint2 1.5 2 7

> /surface/point-surface/ cirPoint3 1 2 7

> /surface/point-surface/ cirPoint4 0 2 7

> /surface/point-surface/ cirPoint1_synYZ -1.8 2 7

> /surface/point-surface/ cirPoint2_synYZ -1.5 2 7

> /surface/point-surface/ cirPoint3_synYZ -1 2 7

> /surface/point-surface/ cirPoint1_synO -1.8 -2 7

> /surface/point-surface/ cirPoint2_synO -1.5 -2 7

> /surface/point-surface/ cirPoint3_synO -1 -2 7

> 
adjoint/                file/                   report/
define/                 mesh/                   solve/
display/                parallel/               surface/
exit                    plot/                   views/

> /surface/line-surface/ line_1 0 0 2 0 0 7

> 
adjoint/                file/                   report/
define/                 mesh/                   solve/
display/                parallel/               surface/
exit                    plot/                   views/

> /surface/line-surface/ line_2 1 2 2 1 2 7

> /surface/line-surface/ line_2_synYZ -1 2 2 -1 2 7

> 
adjoint/                file/                   report/
define/                 mesh/                   solve/
display/                parallel/               surface/
exit                    plot/                   views/

> /surface/line-surface/ line_3 1.5 2 2 1.5 2 7

> /surface/line-surface/ line_3_synYZ -1.5 2 2 -1.5 2 7

> 
adjoint/                file/                   report/
define/                 mesh/                   solve/
display/                parallel/               surface/
exit                    plot/                   views/

> 
adjoint/                file/                   report/
define/                 mesh/                   solve/
display/                parallel/               surface/
exit                    plot/                   views/

> 
adjoint/                file/                   report/
define/                 mesh/                   solve/
display/                parallel/               surface/
exit                    plot/                   views/

> 
adjoint/                file/                   report/
define/                 mesh/                   solve/
display/                parallel/               surface/
exit                    plot/                   views/

> 
adjoint/                file/                   report/
define/                 mesh/                   solve/
display/                parallel/               surface/
exit                    plot/                   views/

> /surface/plane-slice/ YuanPian_0_0_3 0 0 1 3

> /surface/plane-slice/ YuanPian_0_0_4 0 0 1 4

> /surface/plane-slice/ YuanPian_0_0_5 0 0 1 5

> /surface/plane-slice/ YuanPian_0_0_6 0 0 1 6

> /surface/plane-slice/ YuanPian_0_0_7 0 0 1 7

> 
adjoint/                file/                   report/
define/                 mesh/                   solve/
display/                parallel/               surface/
exit                    plot/                   views/

> /surface/transform-surface/ 10 ()
Center Of Rotation
 0 0 0 
Angle of Rotation
0 0 0 
Translation Distance
0 0 0 0 xiKou 

> 
adjoint/                file/                   report/
define/                 mesh/                   solve/
display/                parallel/               surface/
exit                    plot/                   views/

> 
adjoint/                file/                   report/
define/                 mesh/                   solve/
display/                parallel/               surface/
exit                    plot/                   views/

> 
adjoint/                file/                   report/
define/                 mesh/                   solve/
display/                parallel/               surface/
exit                    plot/                   views/

> 
adjoint/                file/                   report/
define/                 mesh/                   solve/
display/                parallel/               surface/
exit                    plot/                   views/

> ;/solve/monitors/surface/set-monitor miao_V_huan_2 ? velocity-magnitude miao31 miao32 miao33 miao34 miao35 miao36   n n y miao_V_huan_2 100

adjoint/                file/                   report/
define/                 mesh/                   solve/
display/                parallel/               surface/
exit                    plot/                   views/

> 
adjoint/                file/                   report/
define/                 mesh/                   solve/
display/                parallel/               surface/
exit                    plot/                   views/

> /solve/monitors/surface/set-monitor cirPoint1  "Sum" velocity-magnitude cirPoint1 () n n y E:\LGF\Sim\task\0825_1\P_85\txtData\cirPoint1_-4400.txt 100
Information: Converting monitor cirpoint1 to report definition.

> /solve/monitors/surface/set-monitor cirPoint2  "Sum" velocity-magnitude cirPoint2 () n n y E:\LGF\Sim\task\0825_1\P_85\txtData\cirPoint2_-4400.txt 100
Information: Converting monitor cirpoint2 to report definition.

> /solve/monitors/surface/set-monitor cirPoint3  "Sum" velocity-magnitude cirPoint3 () n n y E:\LGF\Sim\task\0825_1\P_85\txtData\cirPoint3_-4400.txt 100
Information: Converting monitor cirpoint3 to report definition.

> /solve/monitors/surface/set-monitor cirPoint1-2  "Sum" velocity-magnitude cirPoint1 cirPoint2 () n n y E:\LGF\Sim\task\0825_1\P_85\txtData\cirPoint1-2_-4400.txt 100
Information: Converting monitor cirpoint1-2 to report definition.

> 
adjoint/                file/                   report/
define/                 mesh/                   solve/
display/                parallel/               surface/
exit                    plot/                   views/

> /solve/monitors/surface/set-monitor line_1   "Facet Average" velocity-magnitude line_1 () n n y E:\LGF\Sim\task\0825_1\P_85\txtData\line_1_-4400.txt 100
Information: Converting monitor line_1 to report definition.

> /solve/monitors/surface/set-monitor line_2   "Facet Average" velocity-magnitude line_2 () n n y E:\LGF\Sim\task\0825_1\P_85\txtData\line_2_-4400.txt 100
Information: Converting monitor line_2 to report definition.

> 
adjoint/                file/                   report/
define/                 mesh/                   solve/
display/                parallel/               surface/
exit                    plot/                   views/

> /solve/monitors/surface/set-monitor YuanPian_0_0_5   "Facet Average" velocity-magnitude YuanPian_0_0_5 () n n y E:\LGF\Sim\task\0825_1\P_85\txtData\YuanPian_0_0_5_-4400.txt 100
Information: Converting monitor yuanpian_0_0_5 to report definition.

> 
adjoint/                file/                   report/
define/                 mesh/                   solve/
display/                parallel/               surface/
exit                    plot/                   views/

> /solve/monitors/surface/set-monitor xiKou   "Facet Average" velocity-magnitude xiKou () n n y E:\LGF\Sim\task\0825_1\P_85\txtData\xiKou_-4400.txt 100
Information: Converting monitor xikou to report definition.

> 
adjoint/                file/                   report/
define/                 mesh/                   solve/
display/                parallel/               surface/
exit                    plot/                   views/

> ;/solve/monitors/surface/set-monitor miao_V_huan_4  "Sum" velocity-magnitude miao37 () n n y E:\LGF\Sim\task\0825_1\P_85\txtData\miao_V_huan_4_-4400.txt 100

adjoint/                file/                   report/
define/                 mesh/                   solve/
display/                parallel/               surface/
exit                    plot/                   views/

> ;set monitor residuals
/solve/monitors/residual/convergence-criteria 0.000001 0.000001 0.000001 0.000001 0.000001 0.000001

> 
adjoint/                file/                   report/
define/                 mesh/                   solve/
display/                parallel/               surface/
exit                    plot/                   views/

> ;set force monitors
;compile C
;/define/user-defined/compiled-functions/compile libudf yes FandMmonitor.c "" "" 
; load C
;/define/user-defined/compiled-functions/load libudf
;;    set hook
;/define/user-defined/function-hooks/execute-at-end "force_and_moment_print::libudf" "" 

adjoint/                file/                   report/
define/                 mesh/                   solve/
display/                parallel/               surface/
exit                    plot/                   views/

> ;/solve/monitors/force/set-drag-monitor cx y che1 zxj1 zxj2 che2 zxj3 zxj4 che3 zxj5 zxj6 () n y "cx-CRH380A" n y 1 0 0
;/solve/monitors/force/set-drag-monitor cy y che1 zxj1 zxj2 che2 zxj3 zxj4 che3 zxj5 zxj6 () n y "cy-1D-30" n y 0 1 0
;/solve/monitors/force/set-drag-monitor cz y che1 zxj1 zxj2 che2 zxj3 zxj4 che3 zxj5 zxj6 () n y "cz-CRH380A" n y 0 0 1

adjoint/                file/                   report/
define/                 mesh/                   solve/
display/                parallel/               surface/
exit                    plot/                   views/

> ;/solve/monitors/force/set-moment-monitor mx y che1 zxj1 zxj2 fd1 che2 zxj3 zxj4 fd2 che3 zxj5 zxj6 () n y "mx-1D-30" n y 0 0 0 1 0 0
;/solve/monitors/force/set-moment-monitor my y che1 zxj1 zxj2 fd1 che2 zxj3 zxj4 fd2 che3 zxj5 zxj6 () n y "my-1D-30" n y 0 0 0 0 1 0
;/solve/monitors/force/set-moment-monitor mz y che1 zxj1 zxj2 fd1 che2 zxj3 zxj4 fd2 che3 zxj5 zxj6 () n y "mz-1D-30" n y 0 0 0 0 0 1

adjoint/                file/                   report/
define/                 mesh/                   solve/
display/                parallel/               surface/
exit                    plot/                   views/

> 
adjoint/                file/                   report/
define/                 mesh/                   solve/
display/                parallel/               surface/
exit                    plot/                   views/

> ;init solve set
/solve/initialize/reference-frame Current Reference Frame : Relative to Cell Zoneabsolute

> /solve/initialize/initialize-flow

> ;solve/set/time-step 0.00005
/solve/iterate 10000

  iter  continuity  x-velocity  y-velocity  z-velocity           k     epsilon     time/iter
     1  1.0000e+00  1.0570e+04  9.2552e+02  1.4640e+04  1.7837e+00  1.3644e+03  5:33:18 9999

 turbulent viscosity limited to viscosity ratio of 1.000000e+05 in 3 cells 

 Reversed flow on 4385 faces (100.0% area) of pressure-outlet 24.

 Reversed flow on 2646 faces (100.0% area) of pressure-outlet 25.
     2  5.9807e-01  1.0472e-02  8.7189e-03  2.5842e-02  2.6641e-01  2.1163e+00  6:06:36 9998

 turbulent viscosity limited to viscosity ratio of 1.000000e+05 in 9 cells 

 Reversed flow on 24 faces (4.3% area) of pressure-outlet 22.

 Reversed flow on 3528 faces (77.7% area) of pressure-outlet 24.
     3  7.4022e-01  2.5969e-02  2.3098e-02  2.8929e-02  3.4615e-01  8.6362e-01  5:59:54 9997

 Reversed flow on 24 faces (4.6% area) of pressure-outlet 22.

 Reversed flow on 1924 faces (50.1% area) of pressure-outlet 24.

 Reversed flow on 1747 faces (56.6% area) of pressure-outlet 25.
     4  5.8340e-01  1.1284e-02  1.0788e-02  1.7020e-02  1.3826e-01  5.6170e-01  5:54:31 9996

 Reversed flow on 27 faces (5.2% area) of pressure-outlet 22.

 Reversed flow on 2210 faces (57.3% area) of pressure-outlet 24.

 Reversed flow on 54 faces (0.7% area) of pressure-outlet 25.
     5  5.2357e-01  1.1617e-02  1.0654e-02  1.0115e-02  7.9159e-02  4.2057e-01  6:23:32 9995

 Reversed flow on 5 faces (1.0% area) of pressure-outlet 22.

 Reversed flow on 2845 faces (72.3% area) of pressure-outlet 24.

 Reversed flow on 954 faces (26.5% area) of pressure-outlet 25.
     6  4.5341e-01  8.7101e-03  8.0879e-03  8.4477e-03  4.4708e-02  2.9272e-01  6:13:26 9994

 Reversed flow on 3 faces (0.6% area) of pressure-outlet 22.

 Reversed flow on 2602 faces (66.0% area) of pressure-outlet 24.

 Reversed flow on 161 faces (2.3% area) of pressure-outlet 25.
     7  4.0619e-01  7.1373e-03  6.4312e-03  5.6937e-03  2.5688e-02  1.2519e-01  6:05:20 9993

 Reversed flow on 2772 faces (70.3% area) of pressure-outlet 24.

 Reversed flow on 1154 faces (33.3% area) of pressure-outlet 25.
     8  3.7323e-01  6.4627e-03  5.8472e-03  5.3824e-03  1.9943e-02  1.2416e-01  5:58:51 9992

 Reversed flow on 2853 faces (72.0% area) of pressure-outlet 24.

 Reversed flow on 1092 faces (33.3% area) of pressure-outlet 25.
     9  3.4382e-01  5.5477e-03  5.0300e-03  4.3847e-03  1.6572e-02  1.0435e-01  6:26:58 9991

 turbulent viscosity limited to viscosity ratio of 1.000000e+05 in 1710 cells 

 Reversed flow on 3128 faces (78.8% area) of pressure-outlet 24.

 Reversed flow on 1155 faces (41.1% area) of pressure-outlet 25.
    10  3.2458e-01  4.9097e-03  4.5328e-03  4.0145e-03  1.2083e-02  7.5253e-02  5:42:50 9990

 turbulent viscosity limited to viscosity ratio of 1.000000e+05 in 7275 cells 

 Reversed flow on 3278 faces (82.0% area) of pressure-outlet 24.

 Reversed flow on 990 faces (41.8% area) of pressure-outlet 25.
    11  2.9368e-01  4.1125e-03  3.8636e-03  3.5418e-03  8.8329e-03  5.6057e-02  5:40:50 9989

 turbulent viscosity limited to viscosity ratio of 1.000000e+05 in 19 cells 

 Reversed flow on 3562 faces (88.6% area) of pressure-outlet 24.

 Reversed flow on 1001 faces (48.0% area) of pressure-outlet 25.

  iter  continuity  x-velocity  y-velocity  z-velocity           k     epsilon     time/iter
    12  2.6845e-01  3.6551e-03  3.4942e-03  3.2862e-03  7.5247e-03  3.6102e-02  5:39:14 9988

 Reversed flow on 3824 faces (93.7% area) of pressure-outlet 24.

 Reversed flow on 1153 faces (55.4% area) of pressure-outlet 25.
    13  2.4475e-01  3.2982e-03  3.2079e-03  2.8908e-03  6.7284e-03  2.7576e-02  5:04:39 9987

 Reversed flow on 4352 faces (99.1% area) of pressure-outlet 24.

 Reversed flow on 1296 faces (62.3% area) of pressure-outlet 25.
    14  2.3227e-01  3.2135e-03  3.1516e-03  2.7512e-03  7.0682e-03  2.5096e-02  5:10:16 9986

 Reversed flow on 4370 faces (99.7% area) of pressure-outlet 24.

 Reversed flow on 1332 faces (64.0% area) of pressure-outlet 25.
    15  2.2416e-01  3.0844e-03  3.0083e-03  2.6815e-03  7.3060e-03  2.4258e-02  5:48:02 9985

 Reversed flow on 4379 faces (99.9% area) of pressure-outlet 24.

 Reversed flow on 1200 faces (58.4% area) of pressure-outlet 25.
    16  2.1871e-01  3.0188e-03  2.9097e-03  2.6987e-03  7.2637e-03  2.4217e-02  5:44:58 9984

 Reversed flow on 4384 faces (100.0% area) of pressure-outlet 24.

 Reversed flow on 1126 faces (55.0% area) of pressure-outlet 25.
    17  2.1246e-01  2.9513e-03  2.8033e-03  2.6735e-03  7.1266e-03  2.4436e-02  5:42:30 9983

 Reversed flow on 4385 faces (100.0% area) of pressure-outlet 24.

 Reversed flow on 1178 faces (57.3% area) of pressure-outlet 25.
    18  2.0537e-01  2.9066e-03  2.7527e-03  2.6640e-03  6.9417e-03  2.3977e-02  5:40:31 9982

 Reversed flow on 4385 faces (100.0% area) of pressure-outlet 24.

 Reversed flow on 1211 faces (58.7% area) of pressure-outlet 25.
    19  1.9815e-01  2.8785e-03  2.7190e-03  2.6694e-03  6.7050e-03  2.4375e-02  6:12:12 9981

 turbulent viscosity limited to viscosity ratio of 1.000000e+05 in 3 cells 

 Reversed flow on 4385 faces (100.0% area) of pressure-outlet 24.

 Reversed flow on 1266 faces (61.2% area) of pressure-outlet 25.
    20  1.9226e-01  2.8861e-03  2.7232e-03  2.6892e-03  6.6264e-03  2.4634e-02  5:31:00 9980

 turbulent viscosity limited to viscosity ratio of 1.000000e+05 in 21 cells 

 Reversed flow on 4385 faces (100.0% area) of pressure-outlet 24.

 Reversed flow on 1248 faces (60.4% area) of pressure-outlet 25.
    21  1.8959e-01  2.9582e-03  2.7762e-03  2.7496e-03  7.0506e-03  2.4295e-02  6:04:33 9979

 turbulent viscosity limited to viscosity ratio of 1.000000e+05 in 46 cells 

 Reversed flow on 4385 faces (100.0% area) of pressure-outlet 24.

 Reversed flow on 1254 faces (60.5% area) of pressure-outlet 25.
    22  1.8965e-01  3.0900e-03  2.8910e-03  2.8564e-03  8.9287e-03  2.6040e-02  5:58:08 9978

 turbulent viscosity limited to viscosity ratio of 1.000000e+05 in 102 cells 

 Reversed flow on 4385 faces (100.0% area) of pressure-outlet 24.

 Reversed flow on 1262 faces (60.7% area) of pressure-outlet 25.

  iter  continuity  x-velocity  y-velocity  z-velocity           k     epsilon     time/iter
    23  1.9152e-01  3.2635e-03  3.0381e-03  3.0029e-03  1.1827e-02  2.9557e-02  5:53:00 9977

 turbulent viscosity limited to viscosity ratio of 1.000000e+05 in 229 cells 

 Reversed flow on 4385 faces (100.0% area) of pressure-outlet 24.

 Reversed flow on 1270 faces (61.1% area) of pressure-outlet 25.
    24  1.9617e-01  3.4780e-03  3.2120e-03  3.1945e-03  1.4990e-02  3.3946e-02  5:48:52 9976

 turbulent viscosity limited to viscosity ratio of 1.000000e+05 in 463 cells 

 Reversed flow on 4385 faces (100.0% area) of pressure-outlet 24.

 Reversed flow on 1286 faces (61.8% area) of pressure-outlet 25.
    25  2.0169e-01  3.7340e-03  3.4312e-03  3.4235e-03  1.8172e-02  3.8902e-02  5:45:34 9975

 turbulent viscosity limited to viscosity ratio of 1.000000e+05 in 720 cells 

 Reversed flow on 4385 faces (100.0% area) of pressure-outlet 24.

 Reversed flow on 1310 faces (62.9% area) of pressure-outlet 25.
    26  2.0961e-01  4.0086e-03  3.6573e-03  3.6630e-03  2.0454e-02  4.1323e-02  6:16:10 9974

 turbulent viscosity limited to viscosity ratio of 1.000000e+05 in 1188 cells 

 Reversed flow on 3 faces (0.4% area) of pressure-outlet 22.

 Reversed flow on 4385 faces (100.0% area) of pressure-outlet 24.

 Reversed flow on 1321 faces (63.4% area) of pressure-outlet 25.
    27  2.2063e-01  4.2519e-03  3.8719e-03  3.8893e-03  2.0842e-02  4.2227e-02  5:34:09 9973

 turbulent viscosity limited to viscosity ratio of 1.000000e+05 in 2904 cells 

 Reversed flow on 5 faces (0.7% area) of pressure-outlet 22.

 Reversed flow on 4385 faces (100.0% area) of pressure-outlet 24.

 Reversed flow on 1355 faces (64.9% area) of pressure-outlet 25.
    28  2.3325e-01  4.4183e-03  4.0600e-03  4.0651e-03  1.9820e-02  4.0714e-02  6:07:01 9972

 turbulent viscosity limited to viscosity ratio of 1.000000e+05 in 4727 cells 

 Reversed flow on 4 faces (0.5% area) of pressure-outlet 22.

 Reversed flow on 4385 faces (100.0% area) of pressure-outlet 24.

 Reversed flow on 1383 faces (66.3% area) of pressure-outlet 25.
    29  2.4394e-01  4.4142e-03  4.1538e-03  4.1047e-03  1.7672e-02  3.6924e-02  6:00:03 9971

 turbulent viscosity limited to viscosity ratio of 1.000000e+05 in 5289 cells 

 Reversed flow on 1 face (0.1% area) of pressure-outlet 22.

 Reversed flow on 4385 faces (100.0% area) of pressure-outlet 24.

 Reversed flow on 1395 faces (66.8% area) of pressure-outlet 25.
    30  2.4909e-01  4.1807e-03  4.0554e-03  3.9598e-03  1.4508e-02  2.8977e-02  5:54:29 9970
        Stabilizing pressure coupled to enhance linear solver robustness.

 turbulent viscosity limited to viscosity ratio of 1.000000e+05 in 19400 cells 

 Reversed flow on 4385 faces (100.0% area) of pressure-outlet 24.

 Reversed flow on 1425 faces (68.3% area) of pressure-outlet 25.
    31  2.5215e-01  3.9032e-03  3.8477e-03  3.8438e-03  1.3978e-02  1.2181e-01  8:02:56 9969

 turbulent viscosity limited to viscosity ratio of 1.000000e+05 in 2484 cells 

 Reversed flow on 4385 faces (100.0% area) of pressure-outlet 24.

 Reversed flow on 1451 faces (69.5% area) of pressure-outlet 25.
    32  2.5372e-01  3.7606e-03  3.7163e-03  3.9449e-03  4.5539e-02  7.9128e-02  7:32:46 9968

 turbulent viscosity limited to viscosity ratio of 1.000000e+05 in 380 cells 

 Reversed flow on 4385 faces (100.0% area) of pressure-outlet 24.

 Reversed flow on 1443 faces (69.2% area) of pressure-outlet 25.
    33  2.5450e-01  3.4729e-03  3.4040e-03  3.5963e-03  1.9717e-02  4.4022e-02  7:41:51 9967

 turbulent viscosity limited to viscosity ratio of 1.000000e+05 in 81 cells 

 Reversed flow on 4385 faces (100.0% area) of pressure-outlet 24.

 Reversed flow on 1433 faces (68.7% area) of pressure-outlet 25.

  iter  continuity  x-velocity  y-velocity  z-velocity           k     epsilon     time/iter
    34  2.5897e-01  3.3472e-03  3.2502e-03  3.4476e-03  1.4527e-02  3.3398e-02  7:15:53 9966

 turbulent viscosity limited to viscosity ratio of 1.000000e+05 in 52 cells 

 Reversed flow on 4385 faces (100.0% area) of pressure-outlet 24.

 Reversed flow on 1421 faces (68.2% area) of pressure-outlet 25.
    35  2.6359e-01  3.2507e-03  3.1228e-03  3.3238e-03  1.2075e-02  2.9063e-02  6:21:53 9965

 turbulent viscosity limited to viscosity ratio of 1.000000e+05 in 117 cells 

 Reversed flow on 4385 faces (100.0% area) of pressure-outlet 24.

 Reversed flow on 1430 faces (68.6% area) of pressure-outlet 25.
    36  2.6223e-01  3.0636e-03  2.9521e-03  3.0998e-03  1.0347e-02  2.5594e-02  6:11:54 9964

 turbulent viscosity limited to viscosity ratio of 1.000000e+05 in 193 cells 

 Reversed flow on 4385 faces (100.0% area) of pressure-outlet 24.

 Reversed flow on 1428 faces (68.5% area) of pressure-outlet 25.
    37  2.5709e-01  2.8947e-03  2.8256e-03  2.9425e-03  9.1061e-03  2.2599e-02  5:30:42 9963

 turbulent viscosity limited to viscosity ratio of 1.000000e+05 in 55 cells 

 Reversed flow on 4385 faces (100.0% area) of pressure-outlet 24.

 Reversed flow on 1433 faces (68.8% area) of pressure-outlet 25.
    38  2.5158e-01  2.7410e-03  2.7335e-03  2.8192e-03  7.9518e-03  1.9853e-02  5:30:57 9962

 Reversed flow on 4385 faces (100.0% area) of pressure-outlet 24.

 Reversed flow on 1440 faces (69.1% area) of pressure-outlet 25.
    39  2.4488e-01  2.5935e-03  2.6460e-03  2.7022e-03  6.5328e-03  1.6810e-02  5:31:08 9961

 Reversed flow on 4385 faces (100.0% area) of pressure-outlet 24.

 Reversed flow on 1455 faces (69.8% area) of pressure-outlet 25.
    40  2.3809e-01  2.4613e-03  2.5573e-03  2.5901e-03  5.4987e-03  1.4474e-02  5:31:17 9960

 Reversed flow on 4385 faces (100.0% area) of pressure-outlet 24.

 Reversed flow on 1484 faces (71.2% area) of pressure-outlet 25.
    41  2.3189e-01  2.3525e-03  2.4520e-03  2.4822e-03  4.7453e-03  1.2807e-02  5:31:24 9959

 Reversed flow on 4385 faces (100.0% area) of pressure-outlet 24.

 Reversed flow on 1505 faces (72.1% area) of pressure-outlet 25.
    42  2.2667e-01  2.2567e-03  2.3263e-03  2.3718e-03  4.1542e-03  1.1287e-02  5:31:29 9958

 Reversed flow on 4385 faces (100.0% area) of pressure-outlet 24.

 Reversed flow on 1530 faces (73.3% area) of pressure-outlet 25.
    43  2.2212e-01  2.1781e-03  2.1925e-03  2.2585e-03  3.6725e-03  9.9637e-03  4:58:21 9957

 Reversed flow on 4385 faces (100.0% area) of pressure-outlet 24.

 Reversed flow on 1560 faces (74.7% area) of pressure-outlet 25.
    44  2.1802e-01  2.1093e-03  2.0708e-03  2.1437e-03  3.3182e-03  8.9766e-03  4:31:50 9956

 Reversed flow on 4385 faces (100.0% area) of pressure-outlet 24.

 Reversed flow on 1575 faces (75.3% area) of pressure-outlet 25.

  iter  continuity  x-velocity  y-velocity  z-velocity           k     epsilon     time/iter
    45  2.1366e-01  2.0431e-03  1.9685e-03  2.0358e-03  3.0948e-03  8.4312e-03  5:17:00 9955

 Reversed flow on 4385 faces (100.0% area) of pressure-outlet 24.

 Reversed flow on 1587 faces (75.8% area) of pressure-outlet 25.
    46  2.0880e-01  1.9771e-03  1.8980e-03  1.9393e-03  2.9417e-03  8.2343e-03  4:46:45 9954

 Reversed flow on 4385 faces (100.0% area) of pressure-outlet 24.

 Reversed flow on 1593 faces (76.0% area) of pressure-outlet 25.
    47  2.0443e-01  1.9121e-03  1.8473e-03  1.8562e-03  2.8033e-03  8.1654e-03  4:55:44 9953

 Reversed flow on 4385 faces (100.0% area) of pressure-outlet 24.

 Reversed flow on 1591 faces (76.0% area) of pressure-outlet 25.
    48  2.0052e-01  1.8453e-03  1.8031e-03  1.7779e-03  2.7041e-03  8.1033e-03  5:02:55 9952

 Reversed flow on 4385 faces (100.0% area) of pressure-outlet 24.

 Reversed flow on 1591 faces (76.0% area) of pressure-outlet 25.
    49  1.9693e-01  1.7966e-03  1.7694e-03  1.7157e-03  2.6807e-03  8.2250e-03  4:35:28 9951

 Reversed flow on 4385 faces (100.0% area) of pressure-outlet 24.

 Reversed flow on 1584 faces (75.6% area) of pressure-outlet 25.
    50  1.9406e-01  1.7649e-03  1.7531e-03  1.6762e-03  2.6858e-03  8.2198e-03  4:46:41 9950

 Reversed flow on 4385 faces (100.0% area) of pressure-outlet 24.

 Reversed flow on 1579 faces (75.4% area) of pressure-outlet 25.
    51  1.9206e-01  1.7545e-03  1.7394e-03  1.6542e-03  2.7351e-03  8.1735e-03  4:22:30 9949

 Reversed flow on 4384 faces (100.0% area) of pressure-outlet 24.

 Reversed flow on 1580 faces (75.4% area) of pressure-outlet 25.
    52  1.9083e-01  1.7649e-03  1.7356e-03  1.6467e-03  2.7909e-03  8.1795e-03  4:36:18 9948

 Reversed flow on 4301 faces (98.5% area) of pressure-outlet 24.

 Reversed flow on 1580 faces (75.4% area) of pressure-outlet 25.
    53  1.9089e-01  1.7887e-03  1.7380e-03  1.6514e-03  2.9016e-03  8.6329e-03  4:47:20 9947

 Reversed flow on 4221 faces (96.6% area) of pressure-outlet 24.

 Reversed flow on 1576 faces (75.2% area) of pressure-outlet 25.
    54  1.9228e-01  1.8044e-03  1.7420e-03  1.6651e-03  2.8996e-03  8.2375e-03  4:22:59 9946

 Reversed flow on 4111 faces (93.8% area) of pressure-outlet 24.

 Reversed flow on 1577 faces (75.3% area) of pressure-outlet 25.
    55  1.9418e-01  1.8158e-03  1.7460e-03  1.6840e-03  2.9740e-03  8.4920e-03  4:36:40 9945

 Reversed flow on 4044 faces (92.1% area) of pressure-outlet 24.

 Reversed flow on 1582 faces (75.5% area) of pressure-outlet 25.

  iter  continuity  x-velocity  y-velocity  z-velocity           k     epsilon     time/iter
    56  1.9647e-01  1.8176e-03  1.7643e-03  1.7024e-03  2.9483e-03  8.4428e-03  4:47:36 9944

 Reversed flow on 3994 faces (90.9% area) of pressure-outlet 24.

 Reversed flow on 1581 faces (75.5% area) of pressure-outlet 25.
    57  1.9889e-01  1.8163e-03  1.7861e-03  1.7153e-03  3.0178e-03  8.7278e-03  4:56:21 9943

 Reversed flow on 3961 faces (89.9% area) of pressure-outlet 24.

 Reversed flow on 1577 faces (75.3% area) of pressure-outlet 25.
    58  2.0084e-01  1.8109e-03  1.8012e-03  1.7180e-03  2.9773e-03  8.4459e-03  4:30:12 9942

 Reversed flow on 3955 faces (89.6% area) of pressure-outlet 24.

 Reversed flow on 1576 faces (75.2% area) of pressure-outlet 25.
    59  2.0230e-01  1.8028e-03  1.7961e-03  1.7137e-03  3.0493e-03  8.5926e-03  4:42:25 9941

 Reversed flow on 4012 faces (90.0% area) of pressure-outlet 24.

 Reversed flow on 1572 faces (75.1% area) of pressure-outlet 25.
    60  2.0321e-01  1.7969e-03  1.7872e-03  1.7005e-03  3.0025e-03  8.2281e-03  4:52:10 9940

 Reversed flow on 4020 faces (90.3% area) of pressure-outlet 24.

 Reversed flow on 1570 faces (75.0% area) of pressure-outlet 25.
    61  2.0363e-01  1.7774e-03  1.7719e-03  1.6908e-03  3.0249e-03  8.0733e-03  4:26:51 9939

 Reversed flow on 4032 faces (90.7% area) of pressure-outlet 24.

 Reversed flow on 1565 faces (74.8% area) of pressure-outlet 25.
    62  2.0356e-01  1.7621e-03  1.7479e-03  1.6720e-03  2.9704e-03  8.0597e-03  4:39:42 9938

 Reversed flow on 4042 faces (91.0% area) of pressure-outlet 24.

 Reversed flow on 1561 faces (74.6% area) of pressure-outlet 25.
    63  2.0311e-01  1.7422e-03  1.7287e-03  1.6573e-03  2.9934e-03  7.9888e-03  4:49:59 9937

 Reversed flow on 4058 faces (91.5% area) of pressure-outlet 24.

 Reversed flow on 1564 faces (74.7% area) of pressure-outlet 25.
    64  2.0265e-01  1.7277e-03  1.7028e-03  1.6401e-03  2.9527e-03  8.0110e-03  4:25:05 9936

 Reversed flow on 4068 faces (91.8% area) of pressure-outlet 24.

 Reversed flow on 1564 faces (74.6% area) of pressure-outlet 25.
    65  2.0267e-01  1.7027e-03  1.6822e-03  1.6218e-03  2.8958e-03  7.7515e-03  4:38:17 9935

 Reversed flow on 4079 faces (92.1% area) of pressure-outlet 24.

 Reversed flow on 1564 faces (74.6% area) of pressure-outlet 25.
    66  2.0190e-01  1.6836e-03  1.6506e-03  1.5971e-03  2.8556e-03  7.8073e-03  4:48:50 9934

 Reversed flow on 4088 faces (92.4% area) of pressure-outlet 24.

 Reversed flow on 1568 faces (74.8% area) of pressure-outlet 25.

  iter  continuity  x-velocity  y-velocity  z-velocity           k     epsilon     time/iter
    67  2.0108e-01  1.6526e-03  1.6297e-03  1.5698e-03  2.7618e-03  7.3812e-03  4:24:09 9933

 Reversed flow on 4098 faces (92.6% area) of pressure-outlet 24.

 Reversed flow on 1564 faces (74.6% area) of pressure-outlet 25.
    68  2.0009e-01  1.6297e-03  1.5979e-03  1.5357e-03  2.7269e-03  7.7752e-03  4:37:31 9932

 Reversed flow on 4103 faces (92.8% area) of pressure-outlet 24.

 Reversed flow on 1561 faces (74.5% area) of pressure-outlet 25.
    69  1.9924e-01  1.5955e-03  1.5753e-03  1.5052e-03  2.6025e-03  7.2153e-03  4:48:12 9931

 turbulent viscosity limited to viscosity ratio of 1.000000e+05 in 6 cells 

 Reversed flow on 4108 faces (93.0% area) of pressure-outlet 24.

 Reversed flow on 1563 faces (74.6% area) of pressure-outlet 25.
    70  1.9719e-01  1.5755e-03  1.5436e-03  1.4807e-03  2.6009e-03  7.2054e-03  4:56:44 9930

 turbulent viscosity limited to viscosity ratio of 1.000000e+05 in 7 cells 

 Reversed flow on 4116 faces (93.3% area) of pressure-outlet 24.

 Reversed flow on 1561 faces (74.5% area) of pressure-outlet 25.
    71  1.9492e-01  1.5493e-03  1.5228e-03  1.4611e-03  2.4654e-03  6.7182e-03  5:03:33 9929

 turbulent viscosity limited to viscosity ratio of 1.000000e+05 in 7 cells 

 Reversed flow on 4118 faces (93.3% area) of pressure-outlet 24.

 Reversed flow on 1569 faces (75.0% area) of pressure-outlet 25.
    72  1.9297e-01  1.5362e-03  1.5011e-03  1.4452e-03  2.4747e-03  6.8719e-03  4:35:55 9928

 Reversed flow on 4120 faces (93.3% area) of pressure-outlet 24.

 Reversed flow on 1574 faces (75.2% area) of pressure-outlet 25.
    73  1.9113e-01  1.5226e-03  1.4916e-03  1.4319e-03  2.3445e-03  6.3632e-03  4:13:48 9927

 turbulent viscosity limited to viscosity ratio of 1.000000e+05 in 5 cells 

 Reversed flow on 4122 faces (93.4% area) of pressure-outlet 24.

 Reversed flow on 1583 faces (75.6% area) of pressure-outlet 25.
    74  1.8888e-01  1.5128e-03  1.4776e-03  1.4150e-03  2.3597e-03  6.3885e-03  4:29:11 9926

 Reversed flow on 4125 faces (93.5% area) of pressure-outlet 24.

 Reversed flow on 1586 faces (75.8% area) of pressure-outlet 25.
    75  1.8737e-01  1.4913e-03  1.4601e-03  1.3923e-03  2.2540e-03  6.3367e-03  4:41:30 9925

 turbulent viscosity limited to viscosity ratio of 1.000000e+05 in 3 cells 

 Reversed flow on 4128 faces (93.6% area) of pressure-outlet 24.

 Reversed flow on 1596 faces (76.2% area) of pressure-outlet 25.
    76  1.8564e-01  1.4617e-03  1.4425e-03  1.3730e-03  2.2475e-03  6.2638e-03  4:18:15 9924

 turbulent viscosity limited to viscosity ratio of 1.000000e+05 in 15 cells 

 Reversed flow on 4135 faces (93.7% area) of pressure-outlet 24.

 Reversed flow on 1600 faces (76.4% area) of pressure-outlet 25.
    77  1.8423e-01  1.4423e-03  1.4262e-03  1.3556e-03  2.2280e-03  6.4827e-03  3:59:40 9923

 turbulent viscosity limited to viscosity ratio of 1.000000e+05 in 48 cells 

 Reversed flow on 4159 faces (94.3% area) of pressure-outlet 24.

 Reversed flow on 1607 faces (76.7% area) of pressure-outlet 25.

  iter  continuity  x-velocity  y-velocity  z-velocity           k     epsilon     time/iter
    78  1.8376e-01  1.4221e-03  1.4158e-03  1.3445e-03  2.2878e-03  6.5159e-03  4:17:51 9922

 turbulent viscosity limited to viscosity ratio of 1.000000e+05 in 7 cells 

 Reversed flow on 4185 faces (94.9% area) of pressure-outlet 24.

 Reversed flow on 1612 faces (76.9% area) of pressure-outlet 25.
    79  1.8349e-01  1.4136e-03  1.4037e-03  1.3339e-03  2.3572e-03  6.6623e-03  4:32:24 9921

 Reversed flow on 4222 faces (95.8% area) of pressure-outlet 24.

 Reversed flow on 1617 faces (77.1% area) of pressure-outlet 25.
    80  1.8409e-01  1.3991e-03  1.4014e-03  1.3203e-03  2.2664e-03  6.3914e-03  4:10:58 9920

 Reversed flow on 4212 faces (95.4% area) of pressure-outlet 24.

 Reversed flow on 1618 faces (77.2% area) of pressure-outlet 25.
    81  1.8407e-01  1.4083e-03  1.3972e-03  1.3098e-03  2.2461e-03  6.5660e-03  4:26:53 9919

 Reversed flow on 4216 faces (95.4% area) of pressure-outlet 24.

 Reversed flow on 1617 faces (77.1% area) of pressure-outlet 25.
    82  1.8398e-01  1.4110e-03  1.4057e-03  1.3114e-03  2.2173e-03  6.3387e-03  4:39:36 9918

 Reversed flow on 4224 faces (95.7% area) of pressure-outlet 24.

 Reversed flow on 1618 faces (77.2% area) of pressure-outlet 25.
    83  1.8394e-01  1.4282e-03  1.4129e-03  1.3201e-03  2.2692e-03  6.5683e-03  4:49:46 9917

 Reversed flow on 4237 faces (96.1% area) of pressure-outlet 24.

 Reversed flow on 1618 faces (77.2% area) of pressure-outlet 25.
    84  1.8390e-01  1.4316e-03  1.4233e-03  1.3358e-03  2.2275e-03  6.1452e-03  4:57:54 9916

 Reversed flow on 4250 faces (96.6% area) of pressure-outlet 24.

 Reversed flow on 1618 faces (77.1% area) of pressure-outlet 25.
    85  1.8372e-01  1.4441e-03  1.4242e-03  1.3471e-03  2.3035e-03  6.6357e-03  4:31:21 9915

 Reversed flow on 4259 faces (96.8% area) of pressure-outlet 24.

 Reversed flow on 1619 faces (77.2% area) of pressure-outlet 25.
    86  1.8452e-01  1.4426e-03  1.4285e-03  1.3533e-03  2.2260e-03  6.4097e-03  4:43:09 9914

 Reversed flow on 4274 faces (97.3% area) of pressure-outlet 24.

 Reversed flow on 1619 faces (77.2% area) of pressure-outlet 25.
    87  1.8527e-01  1.4496e-03  1.4287e-03  1.3508e-03  2.2972e-03  6.4298e-03  4:52:35 9913

 Reversed flow on 4288 faces (97.6% area) of pressure-outlet 24.

 Reversed flow on 1615 faces (77.0% area) of pressure-outlet 25.
    88  1.8533e-01  1.4484e-03  1.4307e-03  1.3388e-03  2.2364e-03  6.3235e-03  4:27:05 9912

 Reversed flow on 4297 faces (98.0% area) of pressure-outlet 24.

 Reversed flow on 1615 faces (77.0% area) of pressure-outlet 25.

  iter  continuity  x-velocity  y-velocity  z-velocity           k     epsilon     time/iter
    89  1.8537e-01  1.4376e-03  1.4259e-03  1.3267e-03  2.2528e-03  6.2984e-03  4:39:43 9911

 Reversed flow on 4300 faces (98.0% area) of pressure-outlet 24.

 Reversed flow on 1612 faces (76.9% area) of pressure-outlet 25.
    90  1.8461e-01  1.4226e-03  1.4116e-03  1.3128e-03  2.2098e-03  6.4549e-03  4:16:47 9910

 Reversed flow on 4306 faces (98.2% area) of pressure-outlet 24.

 Reversed flow on 1608 faces (76.7% area) of pressure-outlet 25.
    91  1.8348e-01  1.3889e-03  1.3903e-03  1.2980e-03  2.2007e-03  5.9111e-03  4:31:28 9909

 turbulent viscosity limited to viscosity ratio of 1.000000e+05 in 2 cells 

 Reversed flow on 4311 faces (98.3% area) of pressure-outlet 24.

 Reversed flow on 1607 faces (76.6% area) of pressure-outlet 25.
    92  1.8126e-01  1.3634e-03  1.3525e-03  1.2818e-03  2.2779e-03  6.6382e-03  4:43:12 9908

 turbulent viscosity limited to viscosity ratio of 1.000000e+05 in 6 cells 

 Reversed flow on 4322 faces (98.6% area) of pressure-outlet 24.

 Reversed flow on 1602 faces (76.4% area) of pressure-outlet 25.
    93  1.7962e-01  1.3340e-03  1.3293e-03  1.2777e-03  2.3399e-03  6.4460e-03  4:19:34 9907

 turbulent viscosity limited to viscosity ratio of 1.000000e+05 in 4 cells 

 Reversed flow on 4333 faces (98.8% area) of pressure-outlet 24.

 Reversed flow on 1601 faces (76.4% area) of pressure-outlet 25.
    94  1.7840e-01  1.3458e-03  1.3151e-03  1.2800e-03  2.4666e-03  7.1000e-03  4:33:40 9906

 Reversed flow on 4339 faces (98.9% area) of pressure-outlet 24.

 Reversed flow on 1602 faces (76.4% area) of pressure-outlet 25.
    95  1.7869e-01  1.3787e-03  1.3320e-03  1.2963e-03  2.4663e-03  7.1009e-03  4:44:57 9905

 Reversed flow on 4342 faces (99.0% area) of pressure-outlet 24.

 Reversed flow on 1598 faces (76.3% area) of pressure-outlet 25.
    96  1.8095e-01  1.4436e-03  1.3683e-03  1.3244e-03  2.5757e-03  7.5789e-03  4:53:58 9904

 turbulent viscosity limited to viscosity ratio of 1.000000e+05 in 1 cells 

 Reversed flow on 4347 faces (99.1% area) of pressure-outlet 24.

 Reversed flow on 1598 faces (76.3% area) of pressure-outlet 25.
    97  1.8354e-01  1.4946e-03  1.4292e-03  1.3594e-03  2.5466e-03  7.6290e-03  4:28:09 9903

 Reversed flow on 4342 faces (98.9% area) of pressure-outlet 24.

 Reversed flow on 1597 faces (76.2% area) of pressure-outlet 25.
    98  1.8640e-01  1.5398e-03  1.4830e-03  1.3904e-03  2.5445e-03  7.6498e-03  4:40:31 9902

 Reversed flow on 4296 faces (98.4% area) of pressure-outlet 24.

 Reversed flow on 1595 faces (76.2% area) of pressure-outlet 25.
    99  1.8917e-01  1.5624e-03  1.5199e-03  1.4139e-03  2.4325e-03  7.2746e-03  4:50:24 9901

 Reversed flow on 4271 faces (98.1% area) of pressure-outlet 24.

 Reversed flow on 1598 faces (76.3% area) of pressure-outlet 25.

  iter  continuity  x-velocity  y-velocity  z-velocity           k     epsilon     time/iter
   100  1.9126e-01  1.5693e-03  1.5365e-03  1.4243e-03  2.4582e-03  7.2401e-03  4:25:18 9900

 Reversed flow on 4252 faces (97.8% area) of pressure-outlet 24.

 Reversed flow on 1602 faces (76.4% area) of pressure-outlet 25.
   101  1.9105e-01  1.5527e-03  1.5366e-03  1.4235e-03  2.3751e-03  7.0147e-03  7:23:11 9899

 Reversed flow on 4254 faces (97.9% area) of pressure-outlet 24.

 Reversed flow on 1603 faces (76.5% area) of pressure-outlet 25.
   102  1.8997e-01  1.5186e-03  1.5227e-03  1.4066e-03  2.3627e-03  6.6664e-03  7:00:30 9898

 Reversed flow on 4245 faces (97.8% area) of pressure-outlet 24.

 Reversed flow on 1604 faces (76.5% area) of pressure-outlet 25.
   103  1.8851e-01  1.4885e-03  1.4969e-03  1.3808e-03  2.3369e-03  6.8896e-03  6:09:22 9897

 Reversed flow on 4279 faces (98.5% area) of pressure-outlet 24.

 Reversed flow on 1603 faces (76.5% area) of pressure-outlet 25.
   104  1.8717e-01  1.4560e-03  1.4777e-03  1.3544e-03  2.3703e-03  6.6029e-03  6:01:26 9896

 Reversed flow on 4289 faces (98.8% area) of pressure-outlet 24.

 Reversed flow on 1601 faces (76.4% area) of pressure-outlet 25.
   105  1.8580e-01  1.4407e-03  1.4571e-03  1.3335e-03  2.3532e-03  6.5952e-03  5:22:06 9895

 Reversed flow on 4302 faces (99.1% area) of pressure-outlet 24.

 Reversed flow on 1602 faces (76.4% area) of pressure-outlet 25.
   106  1.8437e-01  1.4263e-03  1.4514e-03  1.3256e-03  2.3786e-03  6.3616e-03  5:23:37 9894

 Reversed flow on 4319 faces (99.3% area) of pressure-outlet 24.

 Reversed flow on 1601 faces (76.4% area) of pressure-outlet 25.
   107  1.8430e-01  1.4354e-03  1.4605e-03  1.3315e-03  2.4790e-03  6.8916e-03  4:51:50 9893

 Reversed flow on 4302 faces (98.9% area) of pressure-outlet 24.

 Reversed flow on 1601 faces (76.4% area) of pressure-outlet 25.
   108  1.8537e-01  1.4479e-03  1.4905e-03  1.3534e-03  2.5228e-03  6.7531e-03  4:59:24 9892

 Reversed flow on 4293 faces (98.6% area) of pressure-outlet 24.

 Reversed flow on 1597 faces (76.2% area) of pressure-outlet 25.
   109  1.8781e-01  1.4893e-03  1.5184e-03  1.3834e-03  2.6878e-03  7.4605e-03  4:32:28 9891

 Reversed flow on 4282 faces (98.4% area) of pressure-outlet 24.

 Reversed flow on 1596 faces (76.1% area) of pressure-outlet 25.
   110  1.9027e-01  1.5251e-03  1.5532e-03  1.4196e-03  2.6779e-03  7.3739e-03  4:10:55 9890

 Reversed flow on 4261 faces (97.9% area) of pressure-outlet 24.

 Reversed flow on 1592 faces (75.9% area) of pressure-outlet 25.

  iter  continuity  x-velocity  y-velocity  z-velocity           k     epsilon     time/iter
   111  1.9317e-01  1.5655e-03  1.5768e-03  1.4508e-03  2.7420e-03  7.7420e-03  4:26:38 9889

 Reversed flow on 4248 faces (97.7% area) of pressure-outlet 24.

 Reversed flow on 1588 faces (75.7% area) of pressure-outlet 25.
   112  1.9592e-01  1.5919e-03  1.5971e-03  1.4796e-03  2.6940e-03  7.7838e-03  4:39:13 9888

 Reversed flow on 4208 faces (96.7% area) of pressure-outlet 24.

 Reversed flow on 1586 faces (75.6% area) of pressure-outlet 25.
   113  1.9919e-01  1.6226e-03  1.6161e-03  1.5092e-03  2.8162e-03  8.2146e-03  4:16:18 9887

 Reversed flow on 4156 faces (95.5% area) of pressure-outlet 24.

 Reversed flow on 1583 faces (75.5% area) of pressure-outlet 25.
   114  2.0232e-01  1.6467e-03  1.6450e-03  1.5394e-03  2.7827e-03  8.4320e-03  4:30:56 9886

 Reversed flow on 4119 faces (94.8% area) of pressure-outlet 24.

 Reversed flow on 1583 faces (75.5% area) of pressure-outlet 25.
   115  2.0600e-01  1.6639e-03  1.6795e-03  1.5676e-03  2.8208e-03  8.2876e-03  4:42:37 9885

 Reversed flow on 4103 faces (94.5% area) of pressure-outlet 24.

 Reversed flow on 1584 faces (75.5% area) of pressure-outlet 25.
   116  2.0889e-01  1.6787e-03  1.7064e-03  1.5835e-03  2.7640e-03  8.5273e-03  4:19:01 9884

 Reversed flow on 4103 faces (94.5% area) of pressure-outlet 24.

 Reversed flow on 1584 faces (75.6% area) of pressure-outlet 25.
   117  2.1067e-01  1.6847e-03  1.7269e-03  1.5925e-03  2.8034e-03  8.5751e-03  4:33:05 9883

 turbulent viscosity limited to viscosity ratio of 1.000000e+05 in 1 cells 

 Reversed flow on 4114 faces (94.7% area) of pressure-outlet 24.

 Reversed flow on 1584 faces (75.6% area) of pressure-outlet 25.
   118  2.1084e-01  1.6976e-03  1.7370e-03  1.5949e-03  2.8145e-03  9.2897e-03  4:44:19 9882

 turbulent viscosity limited to viscosity ratio of 1.000000e+05 in 7 cells 

 Reversed flow on 4124 faces (95.0% area) of pressure-outlet 24.

 Reversed flow on 1585 faces (75.6% area) of pressure-outlet 25.
   119  2.1099e-01  1.6924e-03  1.7454e-03  1.5938e-03  2.7728e-03  8.6263e-03  4:20:22 9881

 turbulent viscosity limited to viscosity ratio of 1.000000e+05 in 4 cells 

 Reversed flow on 4132 faces (95.2% area) of pressure-outlet 24.

 Reversed flow on 1588 faces (75.8% area) of pressure-outlet 25.
   120  2.1105e-01  1.7035e-03  1.7411e-03  1.5893e-03  2.7159e-03  8.7741e-03  4:34:09 9880

 turbulent viscosity limited to viscosity ratio of 1.000000e+05 in 4 cells 

 Reversed flow on 4141 faces (95.5% area) of pressure-outlet 24.

 Reversed flow on 1589 faces (75.8% area) of pressure-outlet 25.
   121  2.1128e-01  1.6991e-03  1.7479e-03  1.5840e-03  2.6563e-03  8.6744e-03  4:45:09 9879

 turbulent viscosity limited to viscosity ratio of 1.000000e+05 in 5 cells 

 Reversed flow on 4149 faces (95.8% area) of pressure-outlet 24.

 Reversed flow on 1589 faces (75.8% area) of pressure-outlet 25.

  iter  continuity  x-velocity  y-velocity  z-velocity           k     epsilon     time/iter
   122  2.1182e-01  1.7109e-03  1.7433e-03  1.5724e-03  2.7459e-03  9.3264e-03  4:21:02 9878

 Reversed flow on 4166 faces (96.3% area) of pressure-outlet 24.

 Reversed flow on 1588 faces (75.8% area) of pressure-outlet 25.
   123  2.1133e-01  1.6977e-03  1.7469e-03  1.5659e-03  2.6026e-03  8.4747e-03  4:34:39 9877

 Reversed flow on 4184 faces (96.7% area) of pressure-outlet 24.

 Reversed flow on 1587 faces (75.7% area) of pressure-outlet 25.
   124  2.1084e-01  1.7069e-03  1.7461e-03  1.5622e-03  2.6671e-03  9.0258e-03  4:12:37 9876

 Reversed flow on 4207 faces (97.2% area) of pressure-outlet 24.

 Reversed flow on 1586 faces (75.7% area) of pressure-outlet 25.
   125  2.1058e-01  1.7056e-03  1.7540e-03  1.5686e-03  2.5811e-03  8.6177e-03  4:27:54 9875

 Reversed flow on 4240 faces (97.9% area) of pressure-outlet 24.

 Reversed flow on 1586 faces (75.7% area) of pressure-outlet 25.
   126  2.1108e-01  1.7233e-03  1.7594e-03  1.5815e-03  2.7738e-03  9.3454e-03  4:40:08 9874

 Reversed flow on 4273 faces (98.6% area) of pressure-outlet 24.

 Reversed flow on 1586 faces (75.7% area) of pressure-outlet 25.
   127  2.1219e-01  1.7479e-03  1.7814e-03  1.6045e-03  2.7813e-03  9.2621e-03  4:16:59 9873

 Reversed flow on 4318 faces (99.3% area) of pressure-outlet 24.

 Reversed flow on 1586 faces (75.7% area) of pressure-outlet 25.
   128  2.1402e-01  1.7723e-03  1.7973e-03  1.6368e-03  3.0113e-03  1.0000e-02  4:31:23 9872

 Reversed flow on 4372 faces (99.9% area) of pressure-outlet 24.

 Reversed flow on 1587 faces (75.8% area) of pressure-outlet 25.
   129  2.1645e-01  1.7974e-03  1.8193e-03  1.6752e-03  3.0069e-03  9.7939e-03  4:42:54 9871

 Reversed flow on 4385 faces (100.0% area) of pressure-outlet 24.

 Reversed flow on 1585 faces (75.7% area) of pressure-outlet 25.
   130  2.1918e-01  1.8219e-03  1.8439e-03  1.7132e-03  3.1512e-03  1.0147e-02  4:19:11 9870

 turbulent viscosity limited to viscosity ratio of 1.000000e+05 in 14 cells 

 Reversed flow on 4385 faces (100.0% area) of pressure-outlet 24.

 Reversed flow on 1583 faces (75.6% area) of pressure-outlet 25.
   131  2.2268e-01  1.8476e-03  1.8681e-03  1.7476e-03  3.1752e-03  1.0092e-02  4:33:08 9869

 turbulent viscosity limited to viscosity ratio of 1.000000e+05 in 19 cells 

 Reversed flow on 4385 faces (100.0% area) of pressure-outlet 24.

 Reversed flow on 1583 faces (75.6% area) of pressure-outlet 25.
   132  2.2624e-01  1.8511e-03  1.8804e-03  1.7771e-03  3.1870e-03  9.8257e-03  4:44:16 9868

 turbulent viscosity limited to viscosity ratio of 1.000000e+05 in 13 cells 

 Reversed flow on 4385 faces (100.0% area) of pressure-outlet 24.

 Reversed flow on 1584 faces (75.6% area) of pressure-outlet 25.

  iter  continuity  x-velocity  y-velocity  z-velocity           k     epsilon     time/iter
   133  2.2782e-01  1.8511e-03  1.8745e-03  1.7943e-03  3.0915e-03  9.2565e-03  4:53:10 9867

 turbulent viscosity limited to viscosity ratio of 1.000000e+05 in 6 cells 

 Reversed flow on 4385 faces (100.0% area) of pressure-outlet 24.

 Reversed flow on 1584 faces (75.6% area) of pressure-outlet 25.
   134  2.2900e-01  1.8318e-03  1.8569e-03  1.7974e-03  3.1123e-03  9.1413e-03  4:27:24 9866

 turbulent viscosity limited to viscosity ratio of 1.000000e+05 in 12 cells 

 Reversed flow on 4385 faces (100.0% area) of pressure-outlet 24.

 Reversed flow on 1587 faces (75.8% area) of pressure-outlet 25.
   135  2.2905e-01  1.8115e-03  1.8343e-03  1.7860e-03  3.0789e-03  9.0226e-03  4:39:40 9865

 turbulent viscosity limited to viscosity ratio of 1.000000e+05 in 25 cells 

 Reversed flow on 4385 faces (100.0% area) of pressure-outlet 24.

 Reversed flow on 1590 faces (75.9% area) of pressure-outlet 25.
   136  2.2765e-01  1.7740e-03  1.8051e-03  1.7690e-03  3.0066e-03  8.9482e-03  4:49:28 9864

 turbulent viscosity limited to viscosity ratio of 1.000000e+05 in 26 cells 

 Reversed flow on 4385 faces (100.0% area) of pressure-outlet 24.

 Reversed flow on 1591 faces (76.0% area) of pressure-outlet 25.
   137  2.2597e-01  1.7401e-03  1.7635e-03  1.7383e-03  2.9299e-03  8.7735e-03  4:24:26 9863

 turbulent viscosity limited to viscosity ratio of 1.000000e+05 in 30 cells 

 Reversed flow on 4385 faces (100.0% area) of pressure-outlet 24.

 Reversed flow on 1594 faces (76.1% area) of pressure-outlet 25.
   138  2.2337e-01  1.6923e-03  1.7208e-03  1.7019e-03  2.9464e-03  8.4908e-03  4:37:16 9862

 turbulent viscosity limited to viscosity ratio of 1.000000e+05 in 19 cells 

 Reversed flow on 4385 faces (100.0% area) of pressure-outlet 24.

 Reversed flow on 1598 faces (76.3% area) of pressure-outlet 25.
   139  2.1979e-01  1.6634e-03  1.6773e-03  1.6619e-03  3.0091e-03  8.7970e-03  4:47:32 9861

 turbulent viscosity limited to viscosity ratio of 1.000000e+05 in 16 cells 

 Reversed flow on 4385 faces (100.0% area) of pressure-outlet 24.

 Reversed flow on 1602 faces (76.5% area) of pressure-outlet 25.
   140  2.1576e-01  1.6294e-03  1.6403e-03  1.6259e-03  3.0748e-03  8.9320e-03  4:22:52 9860

 turbulent viscosity limited to viscosity ratio of 1.000000e+05 in 12 cells 

 Reversed flow on 4367 faces (99.8% area) of pressure-outlet 24.

 Reversed flow on 1606 faces (76.6% area) of pressure-outlet 25.
   141  2.1209e-01  1.6333e-03  1.6180e-03  1.6076e-03  3.2378e-03  9.6632e-03  4:36:00 9859

 turbulent viscosity limited to viscosity ratio of 1.000000e+05 in 3 cells 

 Reversed flow on 4352 faces (99.5% area) of pressure-outlet 24.

 Reversed flow on 1606 faces (76.6% area) of pressure-outlet 25.
   142  2.1027e-01  1.6463e-03  1.6327e-03  1.6154e-03  3.3900e-03  9.8769e-03  4:46:30 9858

 turbulent viscosity limited to viscosity ratio of 1.000000e+05 in 2 cells 

 Reversed flow on 4357 faces (99.6% area) of pressure-outlet 24.

 Reversed flow on 1609 faces (76.7% area) of pressure-outlet 25.
   143  2.1102e-01  1.6924e-03  1.6649e-03  1.6474e-03  3.5614e-03  1.0618e-02  4:22:02 9857

 Reversed flow on 4383 faces (100.0% area) of pressure-outlet 24.

 Reversed flow on 1613 faces (76.9% area) of pressure-outlet 25.

  iter  continuity  x-velocity  y-velocity  z-velocity           k     epsilon     time/iter
   144  2.1460e-01  1.7294e-03  1.7117e-03  1.6853e-03  3.5935e-03  1.0228e-02  4:35:19 9856

 Reversed flow on 4385 faces (100.0% area) of pressure-outlet 24.

 Reversed flow on 1615 faces (77.0% area) of pressure-outlet 25.
   145  2.1945e-01  1.7943e-03  1.7480e-03  1.7217e-03  3.6516e-03  1.0492e-02  4:45:56 9855

 Reversed flow on 4385 faces (100.0% area) of pressure-outlet 24.

 Reversed flow on 1614 faces (76.9% area) of pressure-outlet 25.
   146  2.2481e-01  1.8305e-03  1.7868e-03  1.7515e-03  3.5861e-03  9.9440e-03  4:54:25 9854

 Reversed flow on 4385 faces (100.0% area) of pressure-outlet 24.

 Reversed flow on 1615 faces (77.0% area) of pressure-outlet 25.
   147  2.2937e-01  1.8687e-03  1.7963e-03  1.7756e-03  3.5585e-03  9.9400e-03  4:28:21 9853

 Reversed flow on 4385 faces (100.0% area) of pressure-outlet 24.

 Reversed flow on 1612 faces (76.8% area) of pressure-outlet 25.
   148  2.3175e-01  1.8808e-03  1.7987e-03  1.7893e-03  3.4057e-03  9.4082e-03  4:40:20 9852

 Reversed flow on 4385 faces (100.0% area) of pressure-outlet 24.

 Reversed flow on 1610 faces (76.8% area) of pressure-outlet 25.
   149  2.3214e-01  1.8941e-03  1.7870e-03  1.7876e-03  3.3597e-03  9.4333e-03  4:17:05 9851

 Reversed flow on 4385 faces (100.0% area) of pressure-outlet 24.

 Reversed flow on 1602 faces (76.4% area) of pressure-outlet 25.
   150  2.3059e-01  1.8777e-03  1.7833e-03  1.7797e-03  3.1926e-03  8.8044e-03  5:04:09 9850

 Reversed flow on 4385 faces (100.0% area) of pressure-outlet 24.

 Reversed flow on 1600 faces (76.2% area) of pressure-outlet 25.
   151  2.2824e-01  1.8672e-03  1.7717e-03  1.7715e-03  3.2070e-03  8.5351e-03  5:08:57 9849

 turbulent viscosity limited to viscosity ratio of 1.000000e+05 in 4 cells 

 Reversed flow on 4385 faces (100.0% area) of pressure-outlet 24.

 Reversed flow on 1596 faces (76.1% area) of pressure-outlet 25.
   152  2.2603e-01  1.8441e-03  1.7695e-03  1.7723e-03  3.1906e-03  8.5628e-03  5:12:47 9848

 turbulent viscosity limited to viscosity ratio of 1.000000e+05 in 9 cells 

 Reversed flow on 4385 faces (100.0% area) of pressure-outlet 24.

 Reversed flow on 1592 faces (75.9% area) of pressure-outlet 25.
   153  2.2456e-01  1.8455e-03  1.7672e-03  1.7681e-03  3.1996e-03  8.5949e-03  5:15:51 9847

 turbulent viscosity limited to viscosity ratio of 1.000000e+05 in 2 cells 

 Reversed flow on 4385 faces (100.0% area) of pressure-outlet 24.

 Reversed flow on 1591 faces (75.8% area) of pressure-outlet 25.
   154  2.2366e-01  1.8358e-03  1.7726e-03  1.7600e-03  3.1219e-03  8.3979e-03  4:45:29 9846

 turbulent viscosity limited to viscosity ratio of 1.000000e+05 in 4 cells 

 Reversed flow on 4385 faces (100.0% area) of pressure-outlet 24.

 Reversed flow on 1587 faces (75.7% area) of pressure-outlet 25.

  iter  continuity  x-velocity  y-velocity  z-velocity           k     epsilon     time/iter
   155  2.2309e-01  1.8398e-03  1.7696e-03  1.7582e-03  3.1321e-03  8.5162e-03  4:53:59 9845

 turbulent viscosity limited to viscosity ratio of 1.000000e+05 in 2 cells 

 Reversed flow on 4385 faces (100.0% area) of pressure-outlet 24.

 Reversed flow on 1588 faces (75.7% area) of pressure-outlet 25.
   156  2.2292e-01  1.8321e-03  1.7629e-03  1.7564e-03  3.0467e-03  8.1259e-03  5:33:37 9844

 Reversed flow on 4385 faces (100.0% area) of pressure-outlet 24.

 Reversed flow on 1586 faces (75.6% area) of pressure-outlet 25.
   157  2.2241e-01  1.8269e-03  1.7498e-03  1.7551e-03  3.0334e-03  7.7144e-03  4:59:40 9843

 Reversed flow on 4385 faces (100.0% area) of pressure-outlet 24.

 Reversed flow on 1583 faces (75.5% area) of pressure-outlet 25.
   158  2.2152e-01  1.8116e-03  1.7445e-03  1.7612e-03  3.0297e-03  7.5336e-03  4:32:31 9842

 Reversed flow on 4385 faces (100.0% area) of pressure-outlet 24.

 Reversed flow on 1583 faces (75.5% area) of pressure-outlet 25.
   159  2.2150e-01  1.8160e-03  1.7411e-03  1.7667e-03  3.0942e-03  7.7449e-03  4:43:36 9841

 Reversed flow on 4385 faces (100.0% area) of pressure-outlet 24.

 Reversed flow on 1585 faces (75.6% area) of pressure-outlet 25.
   160  2.2226e-01  1.8159e-03  1.7463e-03  1.7769e-03  3.0865e-03  7.6011e-03  4:19:39 9840

 Reversed flow on 4384 faces (100.0% area) of pressure-outlet 24.

 Reversed flow on 1583 faces (75.6% area) of pressure-outlet 25.
   161  2.2375e-01  1.8164e-03  1.7508e-03  1.7879e-03  3.1340e-03  7.7288e-03  4:33:18 9839

 Reversed flow on 4368 faces (99.5% area) of pressure-outlet 24.

 Reversed flow on 1585 faces (75.7% area) of pressure-outlet 25.
   162  2.2517e-01  1.8229e-03  1.7641e-03  1.7997e-03  3.1533e-03  8.0575e-03  4:44:12 9838

 Reversed flow on 4333 faces (98.7% area) of pressure-outlet 24.

 Reversed flow on 1589 faces (75.9% area) of pressure-outlet 25.
   163  2.2644e-01  1.8280e-03  1.7663e-03  1.8048e-03  3.1483e-03  8.2088e-03  4:20:08 9837

 Reversed flow on 4277 faces (97.2% area) of pressure-outlet 24.

 Reversed flow on 1590 faces (75.9% area) of pressure-outlet 25.
   164  2.2695e-01  1.8113e-03  1.7635e-03  1.7956e-03  3.0659e-03  7.8015e-03  4:33:39 9836

 turbulent viscosity limited to viscosity ratio of 1.000000e+05 in 1 cells 

 Reversed flow on 4243 faces (96.2% area) of pressure-outlet 24.

 Reversed flow on 1589 faces (75.9% area) of pressure-outlet 25.
   165  2.2662e-01  1.7918e-03  1.7477e-03  1.7799e-03  3.0242e-03  7.9437e-03  4:11:41 9835

 turbulent viscosity limited to viscosity ratio of 1.000000e+05 in 8 cells 

 Reversed flow on 4224 faces (95.7% area) of pressure-outlet 24.

 Reversed flow on 1592 faces (76.0% area) of pressure-outlet 25.

  iter  continuity  x-velocity  y-velocity  z-velocity           k     epsilon     time/iter
   166  2.2665e-01  1.7758e-03  1.7380e-03  1.7599e-03  3.0262e-03  7.8353e-03  3:54:06 9834

 turbulent viscosity limited to viscosity ratio of 1.000000e+05 in 25 cells 

 Reversed flow on 4212 faces (95.3% area) of pressure-outlet 24.

 Reversed flow on 1591 faces (76.0% area) of pressure-outlet 25.
   167  2.2703e-01  1.7609e-03  1.7251e-03  1.7359e-03  3.0076e-03  7.6344e-03  4:12:49 9833

 turbulent viscosity limited to viscosity ratio of 1.000000e+05 in 17 cells 

 Reversed flow on 4211 faces (95.2% area) of pressure-outlet 24.

 Reversed flow on 1593 faces (76.1% area) of pressure-outlet 25.
   168  2.2760e-01  1.7405e-03  1.7219e-03  1.7150e-03  3.0082e-03  7.2436e-03  4:27:47 9832

 turbulent viscosity limited to viscosity ratio of 1.000000e+05 in 24 cells 

 Reversed flow on 4215 faces (95.3% area) of pressure-outlet 24.

 Reversed flow on 1592 faces (76.0% area) of pressure-outlet 25.
   169  2.2804e-01  1.7285e-03  1.7118e-03  1.6915e-03  2.9215e-03  7.1729e-03  4:39:45 9831

 turbulent viscosity limited to viscosity ratio of 1.000000e+05 in 21 cells 

 Reversed flow on 4226 faces (95.6% area) of pressure-outlet 24.

 Reversed flow on 1590 faces (75.9% area) of pressure-outlet 25.
   170  2.2818e-01  1.7120e-03  1.7109e-03  1.6645e-03  2.8853e-03  6.9955e-03  4:49:18 9830

 turbulent viscosity limited to viscosity ratio of 1.000000e+05 in 12 cells 

 Reversed flow on 4235 faces (95.9% area) of pressure-outlet 24.

 Reversed flow on 1590 faces (75.9% area) of pressure-outlet 25.
   171  2.2829e-01  1.7065e-03  1.7068e-03  1.6406e-03  2.8658e-03  7.1863e-03  4:56:57 9829

 turbulent viscosity limited to viscosity ratio of 1.000000e+05 in 12 cells 

 Reversed flow on 4244 faces (96.2% area) of pressure-outlet 24.

 Reversed flow on 1590 faces (75.9% area) of pressure-outlet 25.
   172  2.2852e-01  1.6990e-03  1.7210e-03  1.6236e-03  2.8651e-03  6.7889e-03  4:30:18 9828

 Reversed flow on 4256 faces (96.5% area) of pressure-outlet 24.

 Reversed flow on 1584 faces (75.7% area) of pressure-outlet 25.
   173  2.2915e-01  1.7184e-03  1.7319e-03  1.6160e-03  2.9244e-03  7.2737e-03  4:41:44 9827

 Reversed flow on 4268 faces (96.8% area) of pressure-outlet 24.

 Reversed flow on 1582 faces (75.6% area) of pressure-outlet 25.
   174  2.3109e-01  1.7376e-03  1.7609e-03  1.6270e-03  2.9330e-03  7.1702e-03  4:18:07 9826

 Reversed flow on 4276 faces (97.0% area) of pressure-outlet 24.

 Reversed flow on 1582 faces (75.6% area) of pressure-outlet 25.
   175  2.3382e-01  1.7693e-03  1.7795e-03  1.6408e-03  3.0531e-03  8.0184e-03  4:31:58 9825

 Reversed flow on 4288 faces (97.3% area) of pressure-outlet 24.

 Reversed flow on 1582 faces (75.6% area) of pressure-outlet 25.
   176  2.3732e-01  1.7768e-03  1.8061e-03  1.6543e-03  2.9517e-03  7.4028e-03  4:43:03 9824

 Reversed flow on 4293 faces (97.6% area) of pressure-outlet 24.

 Reversed flow on 1584 faces (75.7% area) of pressure-outlet 25.

  iter  continuity  x-velocity  y-velocity  z-velocity           k     epsilon     time/iter
   177  2.3992e-01  1.7848e-03  1.8061e-03  1.6537e-03  2.9954e-03  7.7638e-03  4:19:09 9823

 Reversed flow on 4302 faces (97.9% area) of pressure-outlet 24.

 Reversed flow on 1583 faces (75.6% area) of pressure-outlet 25.
   178  2.4235e-01  1.7785e-03  1.7972e-03  1.6409e-03  2.8183e-03  7.1968e-03  4:32:47 9822

 Reversed flow on 4311 faces (98.1% area) of pressure-outlet 24.

 Reversed flow on 1585 faces (75.7% area) of pressure-outlet 25.
   179  2.4249e-01  1.7640e-03  1.7680e-03  1.6149e-03  2.8683e-03  7.5502e-03  4:43:41 9821

 Reversed flow on 4309 faces (98.0% area) of pressure-outlet 24.

 Reversed flow on 1586 faces (75.8% area) of pressure-outlet 25.
   180  2.4062e-01  1.7315e-03  1.7361e-03  1.5797e-03  2.6833e-03  6.9025e-03  4:19:39 9820

 Reversed flow on 4316 faces (98.2% area) of pressure-outlet 24.

 Reversed flow on 1586 faces (75.8% area) of pressure-outlet 25.
   181  2.3758e-01  1.6912e-03  1.7012e-03  1.5447e-03  2.6855e-03  6.8780e-03  4:33:10 9819

 Reversed flow on 4327 faces (98.5% area) of pressure-outlet 24.

 Reversed flow on 1588 faces (75.9% area) of pressure-outlet 25.
   182  2.3350e-01  1.6569e-03  1.6632e-03  1.5193e-03  2.5467e-03  6.6571e-03  4:43:58 9818

 Reversed flow on 4357 faces (99.2% area) of pressure-outlet 24.

 Reversed flow on 1589 faces (75.9% area) of pressure-outlet 25.
   183  2.2915e-01  1.6165e-03  1.6370e-03  1.5061e-03  2.5496e-03  6.7775e-03  5:25:19 9817

 Reversed flow on 4368 faces (99.6% area) of pressure-outlet 24.

 Reversed flow on 1592 faces (76.1% area) of pressure-outlet 25.
   184  2.2573e-01  1.6022e-03  1.6106e-03  1.4992e-03  2.5139e-03  6.8065e-03  5:25:40 9816

 Reversed flow on 4382 faces (99.9% area) of pressure-outlet 24.

 Reversed flow on 1596 faces (76.2% area) of pressure-outlet 25.
   185  2.2365e-01  1.5723e-03  1.6078e-03  1.5008e-03  2.5183e-03  6.8829e-03  5:25:56 9815

 Reversed flow on 4385 faces (100.0% area) of pressure-outlet 24.

 Reversed flow on 1598 faces (76.3% area) of pressure-outlet 25.
   186  2.2338e-01  1.5801e-03  1.6018e-03  1.5098e-03  2.5971e-03  7.1964e-03  4:53:26 9814

 turbulent viscosity limited to viscosity ratio of 1.000000e+05 in 1 cells 

 Reversed flow on 4385 faces (100.0% area) of pressure-outlet 24.

 Reversed flow on 1600 faces (76.4% area) of pressure-outlet 25.
   187  2.2505e-01  1.5851e-03  1.6234e-03  1.5251e-03  2.6457e-03  7.4094e-03  5:00:09 9813

 Reversed flow on 4385 faces (100.0% area) of pressure-outlet 24.

 Reversed flow on 1601 faces (76.5% area) of pressure-outlet 25.

[...]

 Reversed flow on 1581 faces (75.5% area) of pressure-outlet 25.
  3278  2.4665e-01  1.6567e-03  1.6470e-03  1.5636e-03  2.6000e-03  7.8438e-03  2:48:42 6722

 Reversed flow on 3880 faces (87.7% area) of pressure-outlet 24.

 Reversed flow on 1582 faces (75.6% area) of pressure-outlet 25.

  iter  continuity  x-velocity  y-velocity  z-velocity           k     epsilon     time/iter
  3279  2.5001e-01  1.6868e-03  1.6705e-03  1.5812e-03  2.6813e-03  7.8718e-03  2:59:45 6721

 turbulent viscosity limited to viscosity ratio of 1.000000e+05 in 1 cells 

 Reversed flow on 3898 faces (88.1% area) of pressure-outlet 24.

 Reversed flow on 1586 faces (75.8% area) of pressure-outlet 25.
  3280  2.5294e-01  1.7116e-03  1.6864e-03  1.5982e-03  2.6614e-03  8.1418e-03  2:46:11 6720

 Reversed flow on 3917 faces (88.6% area) of pressure-outlet 24.

 Reversed flow on 1589 faces (75.9% area) of pressure-outlet 25.
  3281  2.5561e-01  1.7189e-03  1.6923e-03  1.6067e-03  2.6805e-03  7.9347e-03  2:57:43 6719

 turbulent viscosity limited to viscosity ratio of 1.000000e+05 in 1 cells 

 Reversed flow on 3956 faces (89.3% area) of pressure-outlet 24.

 Reversed flow on 1591 faces (76.0% area) of pressure-outlet 25.
  3282  2.5723e-01  1.7107e-03  1.6816e-03  1.6008e-03  2.6406e-03  8.3423e-03  2:44:33 6718

 Reversed flow on 3992 faces (90.1% area) of pressure-outlet 24.

 Reversed flow on 1590 faces (75.9% area) of pressure-outlet 25.
  3283  2.5705e-01  1.6763e-03  1.6699e-03  1.5815e-03  2.5655e-03  7.9449e-03  2:56:24 6717

 Reversed flow on 4029 faces (90.8% area) of pressure-outlet 24.

 Reversed flow on 1585 faces (75.7% area) of pressure-outlet 25.
  3284  2.5463e-01  1.6537e-03  1.6474e-03  1.5466e-03  2.5508e-03  8.2559e-03  2:43:29 6716

 Reversed flow on 4072 faces (91.8% area) of pressure-outlet 24.

 Reversed flow on 1584 faces (75.6% area) of pressure-outlet 25.
  3285  2.5129e-01  1.6153e-03  1.6226e-03  1.5079e-03  2.3688e-03  7.2417e-03  2:55:32 6715

 Reversed flow on 4098 faces (92.4% area) of pressure-outlet 24.

 Reversed flow on 1585 faces (75.7% area) of pressure-outlet 25.
  3286  2.4711e-01  1.5923e-03  1.5883e-03  1.4742e-03  2.3325e-03  7.3641e-03  3:05:10 6714

 Reversed flow on 4115 faces (92.7% area) of pressure-outlet 24.

 Reversed flow on 1587 faces (75.8% area) of pressure-outlet 25.
  3287  2.4299e-01  1.5600e-03  1.5627e-03  1.4540e-03  2.2252e-03  6.9173e-03  2:50:29 6713

 Reversed flow on 4132 faces (93.2% area) of pressure-outlet 24.

 Reversed flow on 1587 faces (75.8% area) of pressure-outlet 25.
  3288  2.3904e-01  1.5512e-03  1.5436e-03  1.4467e-03  2.3349e-03  7.1678e-03  2:38:45 6712

 Reversed flow on 4147 faces (93.7% area) of pressure-outlet 24.

 Reversed flow on 1585 faces (75.7% area) of pressure-outlet 25.
  3289  2.3640e-01  1.5455e-03  1.5454e-03  1.4510e-03  2.2577e-03  7.0269e-03  2:51:43 6711

 Reversed flow on 4156 faces (94.0% area) of pressure-outlet 24.

 Reversed flow on 1584 faces (75.6% area) of pressure-outlet 25.

  iter  continuity  x-velocity  y-velocity  z-velocity           k     epsilon     time/iter
  3290  2.3542e-01  1.5513e-03  1.5576e-03  1.4662e-03  2.3573e-03  7.1717e-03  3:02:05 6710

 Reversed flow on 4170 faces (94.5% area) of pressure-outlet 24.

 Reversed flow on 1582 faces (75.5% area) of pressure-outlet 25.
  3291  2.3549e-01  1.5642e-03  1.5766e-03  1.4867e-03  2.2731e-03  6.8515e-03  2:48:01 6709

 Reversed flow on 4179 faces (94.8% area) of pressure-outlet 24.

 Reversed flow on 1580 faces (75.4% area) of pressure-outlet 25.
  3292  2.3608e-01  1.5804e-03  1.5975e-03  1.5126e-03  2.3697e-03  6.7797e-03  2:59:06 6708

 Reversed flow on 4185 faces (95.1% area) of pressure-outlet 24.

 Reversed flow on 1579 faces (75.4% area) of pressure-outlet 25.
  3293  2.3682e-01  1.6150e-03  1.6164e-03  1.5359e-03  2.3888e-03  7.3449e-03  3:07:59 6707

 turbulent viscosity limited to viscosity ratio of 1.000000e+05 in 2 cells 

 Reversed flow on 4138 faces (94.3% area) of pressure-outlet 24.

 Reversed flow on 1580 faces (75.4% area) of pressure-outlet 25.
  3294  2.3773e-01  1.6185e-03  1.6368e-03  1.5533e-03  2.4010e-03  6.8899e-03  3:15:04 6706

 turbulent viscosity limited to viscosity ratio of 1.000000e+05 in 2 cells 

 Reversed flow on 4127 faces (94.1% area) of pressure-outlet 24.

 Reversed flow on 1578 faces (75.3% area) of pressure-outlet 25.
  3295  2.3822e-01  1.6354e-03  1.6446e-03  1.5598e-03  2.3919e-03  7.0936e-03  3:20:44 6705

 Reversed flow on 4104 faces (93.7% area) of pressure-outlet 24.

 Reversed flow on 1576 faces (75.3% area) of pressure-outlet 25.
  3296  2.3852e-01  1.6247e-03  1.6620e-03  1.5647e-03  2.3690e-03  6.9269e-03  3:02:54 6704

 turbulent viscosity limited to viscosity ratio of 1.000000e+05 in 1 cells 

 Reversed flow on 4118 faces (93.9% area) of pressure-outlet 24.

 Reversed flow on 1576 faces (75.3% area) of pressure-outlet 25.
  3297  2.3799e-01  1.6393e-03  1.6564e-03  1.5635e-03  2.4595e-03  7.2287e-03  2:48:39 6703

 turbulent viscosity limited to viscosity ratio of 1.000000e+05 in 2 cells 

 Reversed flow on 4119 faces (94.0% area) of pressure-outlet 24.

 Reversed flow on 1576 faces (75.3% area) of pressure-outlet 25.
  3298  2.3638e-01  1.6243e-03  1.6605e-03  1.5609e-03  2.4220e-03  6.8472e-03  2:37:14 6702

 turbulent viscosity limited to viscosity ratio of 1.000000e+05 in 2 cells 

 Reversed flow on 4137 faces (94.4% area) of pressure-outlet 24.

 Reversed flow on 1573 faces (75.2% area) of pressure-outlet 25.
  3299  2.3422e-01  1.6518e-03  1.6579e-03  1.5624e-03  2.6038e-03  7.7441e-03  2:50:27 6701

 Reversed flow on 4130 faces (94.3% area) of pressure-outlet 24.

 Reversed flow on 1576 faces (75.3% area) of pressure-outlet 25.
  3300  2.3302e-01  1.6788e-03  1.6824e-03  1.5846e-03  2.6511e-03  7.5451e-03  3:01:00 6700

 Reversed flow on 4135 faces (94.4% area) of pressure-outlet 24.

 Reversed flow on 1579 faces (75.4% area) of pressure-outlet 25.

  iter  continuity  x-velocity  y-velocity  z-velocity           k     epsilon     time/iter
  3301  2.3294e-01  1.7371e-03  1.7166e-03  1.6212e-03  2.8779e-03  8.2961e-03  3:09:26 6699

 Reversed flow on 4138 faces (94.6% area) of pressure-outlet 24.

 Reversed flow on 1581 faces (75.5% area) of pressure-outlet 25.
  3302  2.3397e-01  1.7746e-03  1.7720e-03  1.6687e-03  2.8945e-03  8.6672e-03  2:53:51 6698

 Reversed flow on 4128 faces (94.5% area) of pressure-outlet 24.

 Reversed flow on 1583 faces (75.7% area) of pressure-outlet 25.
  3303  2.3678e-01  1.8170e-03  1.8246e-03  1.7254e-03  3.1033e-03  9.1883e-03  3:03:43 6697

 Reversed flow on 4123 faces (94.3% area) of pressure-outlet 24.

 Reversed flow on 1586 faces (75.8% area) of pressure-outlet 25.
  3304  2.4038e-01  1.8512e-03  1.8857e-03  1.7866e-03  3.0858e-03  8.8992e-03  3:11:35 6696

 Reversed flow on 4113 faces (94.0% area) of pressure-outlet 24.

 Reversed flow on 1586 faces (75.8% area) of pressure-outlet 25.
  3305  2.4356e-01  1.8878e-03  1.9258e-03  1.8458e-03  3.2610e-03  9.5004e-03  3:17:53 6695

 Reversed flow on 4120 faces (94.2% area) of pressure-outlet 24.

 Reversed flow on 1584 faces (75.7% area) of pressure-outlet 25.
  3306  2.4688e-01  1.9239e-03  1.9610e-03  1.8932e-03  3.2450e-03  9.7607e-03  3:00:36 6694

 Reversed flow on 4109 faces (94.2% area) of pressure-outlet 24.

 Reversed flow on 1584 faces (75.7% area) of pressure-outlet 25.
  3307  2.4945e-01  1.9505e-03  1.9732e-03  1.9204e-03  3.2689e-03  9.5131e-03  3:09:04 6693

 Reversed flow on 4115 faces (94.4% area) of pressure-outlet 24.

 Reversed flow on 1585 faces (75.8% area) of pressure-outlet 25.
  3308  2.5054e-01  1.9789e-03  1.9705e-03  1.9313e-03  3.1571e-03  9.3301e-03  2:53:33 6692

 Reversed flow on 4120 faces (94.7% area) of pressure-outlet 24.

 Reversed flow on 1583 faces (75.7% area) of pressure-outlet 25.
  3309  2.5011e-01  1.9790e-03  1.9679e-03  1.9297e-03  3.1510e-03  9.2350e-03  3:25:43 6691

 Reversed flow on 4126 faces (94.9% area) of pressure-outlet 24.

 Reversed flow on 1583 faces (75.7% area) of pressure-outlet 25.
  3310  2.4782e-01  1.9897e-03  1.9575e-03  1.9181e-03  3.1624e-03  9.7086e-03  3:29:09 6690

 Reversed flow on 4139 faces (95.1% area) of pressure-outlet 24.

 Reversed flow on 1582 faces (75.6% area) of pressure-outlet 25.
  3311  2.4562e-01  1.9642e-03  1.9589e-03  1.9018e-03  3.0826e-03  9.1091e-03  3:09:36 6689

 Reversed flow on 4145 faces (95.3% area) of pressure-outlet 24.

 Reversed flow on 1582 faces (75.6% area) of pressure-outlet 25.

  iter  continuity  x-velocity  y-velocity  z-velocity           k     epsilon     time/iter
  3312  2.4376e-01  1.9676e-03  1.9568e-03  1.8860e-03  3.1511e-03  9.7316e-03  3:16:14 6688

 turbulent viscosity limited to viscosity ratio of 1.000000e+05 in 4 cells 

 Reversed flow on 4150 faces (95.4% area) of pressure-outlet 24.

 Reversed flow on 1579 faces (75.5% area) of pressure-outlet 25.
  3313  2.4163e-01  1.9618e-03  1.9768e-03  1.8790e-03  3.1283e-03  9.3943e-03  3:21:33 6687

 turbulent viscosity limited to viscosity ratio of 1.000000e+05 in 6 cells 

 Reversed flow on 4140 faces (95.1% area) of pressure-outlet 24.

 Reversed flow on 1576 faces (75.3% area) of pressure-outlet 25.
  3314  2.4081e-01  1.9762e-03  1.9873e-03  1.8813e-03  3.2174e-03  1.0023e-02  3:25:47 6686

 turbulent viscosity limited to viscosity ratio of 1.000000e+05 in 25 cells 

 Reversed flow on 4128 faces (94.8% area) of pressure-outlet 24.

 Reversed flow on 1576 faces (75.3% area) of pressure-outlet 25.
  3315  2.4108e-01  1.9716e-03  2.0148e-03  1.8932e-03  3.0863e-03  9.6643e-03  3:06:53 6685

 turbulent viscosity limited to viscosity ratio of 1.000000e+05 in 43 cells 

 Reversed flow on 4129 faces (94.9% area) of pressure-outlet 24.

 Reversed flow on 1578 faces (75.4% area) of pressure-outlet 25.
  3316  2.4216e-01  1.9796e-03  2.0309e-03  1.9079e-03  3.2153e-03  1.0029e-02  3:14:03 6684

 turbulent viscosity limited to viscosity ratio of 1.000000e+05 in 26 cells 

 Reversed flow on 4112 faces (94.5% area) of pressure-outlet 24.

 Reversed flow on 1580 faces (75.5% area) of pressure-outlet 25.
  3317  2.4370e-01  1.9783e-03  2.0546e-03  1.9250e-03  3.1389e-03  9.4748e-03  3:19:46 6683

 turbulent viscosity limited to viscosity ratio of 1.000000e+05 in 7 cells 

 Reversed flow on 4115 faces (94.4% area) of pressure-outlet 24.

 Reversed flow on 1584 faces (75.6% area) of pressure-outlet 25.
  3318  2.4590e-01  1.9867e-03  2.0718e-03  1.9430e-03  3.2977e-03  1.0217e-02  3:02:04 6682

 turbulent viscosity limited to viscosity ratio of 1.000000e+05 in 1 cells 

 Reversed flow on 4119 faces (94.3% area) of pressure-outlet 24.

 Reversed flow on 1590 faces (75.9% area) of pressure-outlet 25.
  3319  2.4918e-01  2.0172e-03  2.1018e-03  1.9696e-03  3.2637e-03  1.0232e-02  3:10:10 6681

 turbulent viscosity limited to viscosity ratio of 1.000000e+05 in 5 cells 

 Reversed flow on 4146 faces (94.7% area) of pressure-outlet 24.

 Reversed flow on 1590 faces (75.9% area) of pressure-outlet 25.
  3320  2.5321e-01  2.0382e-03  2.1217e-03  2.0005e-03  3.3510e-03  1.0116e-02  3:16:39 6680

 Reversed flow on 4178 faces (95.4% area) of pressure-outlet 24.

 Reversed flow on 1589 faces (75.9% area) of pressure-outlet 25.
  3321  2.5717e-01  2.0725e-03  2.1316e-03  2.0336e-03  3.3070e-03  1.0156e-02  3:21:49 6679

 Reversed flow on 4234 faces (96.6% area) of pressure-outlet 24.

 Reversed flow on 1590 faces (75.9% area) of pressure-outlet 25.
  3322  2.6115e-01  2.0951e-03  2.1327e-03  2.0604e-03  3.3873e-03  1.0705e-02  3:03:42 6678

 Reversed flow on 4282 faces (97.6% area) of pressure-outlet 24.

 Reversed flow on 1592 faces (76.0% area) of pressure-outlet 25.

  iter  continuity  x-velocity  y-velocity  z-velocity           k     epsilon     time/iter
  3323  2.6496e-01  2.1310e-03  2.1165e-03  2.0882e-03  3.4302e-03  1.0865e-02  3:11:27 6677

 Reversed flow on 4333 faces (98.8% area) of pressure-outlet 24.

 Reversed flow on 1591 faces (76.0% area) of pressure-outlet 25.
  3324  2.6815e-01  2.1443e-03  2.1222e-03  2.1125e-03  3.4155e-03  1.0694e-02  3:17:38 6676

 Reversed flow on 4379 faces (99.9% area) of pressure-outlet 24.

 Reversed flow on 1590 faces (75.9% area) of pressure-outlet 25.
  3325  2.7152e-01  2.1628e-03  2.1254e-03  2.1251e-03  3.4925e-03  1.1035e-02  3:22:35 6675

 turbulent viscosity limited to viscosity ratio of 1.000000e+05 in 1 cells 

 Reversed flow on 4385 faces (100.0% area) of pressure-outlet 24.

 Reversed flow on 1587 faces (75.8% area) of pressure-outlet 25.
  3326  2.7465e-01  2.1459e-03  2.1395e-03  2.1321e-03  3.3794e-03  1.0415e-02  3:04:18 6674

 Reversed flow on 4385 faces (100.0% area) of pressure-outlet 24.

 Reversed flow on 1583 faces (75.6% area) of pressure-outlet 25.
  3327  2.7656e-01  2.1286e-03  2.1218e-03  2.1238e-03  3.3931e-03  1.0656e-02  3:11:54 6673

 Reversed flow on 4385 faces (100.0% area) of pressure-outlet 24.

 Reversed flow on 1581 faces (75.5% area) of pressure-outlet 25.
  3328  2.7674e-01  2.0857e-03  2.1049e-03  2.1054e-03  3.2114e-03  9.8771e-03  3:17:59 6672

 Reversed flow on 4385 faces (100.0% area) of pressure-outlet 24.

 Reversed flow on 1578 faces (75.4% area) of pressure-outlet 25.
  3329  2.7563e-01  2.0470e-03  2.0726e-03  2.0745e-03  3.2125e-03  9.5960e-03  3:22:50 6671

 Reversed flow on 4385 faces (100.0% area) of pressure-outlet 24.

 Reversed flow on 1574 faces (75.2% area) of pressure-outlet 25.
  3330  2.7360e-01  1.9972e-03  2.0433e-03  2.0453e-03  3.0571e-03  8.7623e-03  3:26:42 6670

 Reversed flow on 4385 faces (100.0% area) of pressure-outlet 24.

 Reversed flow on 1573 faces (75.1% area) of pressure-outlet 25.
  3331  2.7274e-01  1.9587e-03  2.0066e-03  2.0135e-03  3.0605e-03  8.6520e-03  3:07:34 6669

 Reversed flow on 4385 faces (100.0% area) of pressure-outlet 24.

 Reversed flow on 1572 faces (75.1% area) of pressure-outlet 25.
  3332  2.7167e-01  1.9239e-03  1.9740e-03  1.9775e-03  3.0148e-03  8.3822e-03  3:14:29 6668

 turbulent viscosity limited to viscosity ratio of 1.000000e+05 in 1 cells 

 Reversed flow on 4385 faces (100.0% area) of pressure-outlet 24.

 Reversed flow on 1569 faces (75.0% area) of pressure-outlet 25.
  3333  2.7020e-01  1.8915e-03  1.9384e-03  1.9406e-03  3.0118e-03  8.3258e-03  2:57:47 6667

 turbulent viscosity limited to viscosity ratio of 1.000000e+05 in 7 cells 

 Reversed flow on 4385 faces (100.0% area) of pressure-outlet 24.

 Reversed flow on 1568 faces (74.9% area) of pressure-outlet 25.

  iter  continuity  x-velocity  y-velocity  z-velocity           k     epsilon     time/iter
  3334  2.6775e-01  1.8641e-03  1.9087e-03  1.9034e-03  2.9877e-03  8.5477e-03  3:06:39 6666

 turbulent viscosity limited to viscosity ratio of 1.000000e+05 in 8 cells 

 Reversed flow on 4385 faces (100.0% area) of pressure-outlet 24.

 Reversed flow on 1568 faces (74.9% area) of pressure-outlet 25.
  3335  2.6504e-01  1.8378e-03  1.8758e-03  1.8645e-03  2.9666e-03  8.3294e-03  3:13:44 6665

 turbulent viscosity limited to viscosity ratio of 1.000000e+05 in 14 cells 

 Reversed flow on 4385 faces (100.0% area) of pressure-outlet 24.

 Reversed flow on 1572 faces (75.1% area) of pressure-outlet 25.
  3336  2.6219e-01  1.8113e-03  1.8524e-03  1.8278e-03  2.9502e-03  8.1645e-03  3:19:23 6664

 turbulent viscosity limited to viscosity ratio of 1.000000e+05 in 11 cells 

 Reversed flow on 4385 faces (100.0% area) of pressure-outlet 24.

 Reversed flow on 1575 faces (75.2% area) of pressure-outlet 25.
  3337  2.6069e-01  1.7961e-03  1.8375e-03  1.8027e-03  2.9431e-03  8.3200e-03  3:01:42 6663

 turbulent viscosity limited to viscosity ratio of 1.000000e+05 in 6 cells 

 Reversed flow on 4385 faces (100.0% area) of pressure-outlet 24.

 Reversed flow on 1576 faces (75.3% area) of pressure-outlet 25.
  3338  2.6002e-01  1.7791e-03  1.8326e-03  1.7891e-03  2.9476e-03  8.3222e-03  3:09:45 6662

 turbulent viscosity limited to viscosity ratio of 1.000000e+05 in 7 cells 

 Reversed flow on 4385 faces (100.0% area) of pressure-outlet 24.

 Reversed flow on 1579 faces (75.4% area) of pressure-outlet 25.
  3339  2.6057e-01  1.7724e-03  1.8318e-03  1.7852e-03  2.9369e-03  8.0128e-03  3:16:11 6661

 turbulent viscosity limited to viscosity ratio of 1.000000e+05 in 12 cells 

 Reversed flow on 4385 faces (100.0% area) of pressure-outlet 24.

 Reversed flow on 1581 faces (75.5% area) of pressure-outlet 25.
  3340  2.6038e-01  1.7709e-03  1.8363e-03  1.7823e-03  2.8936e-03  7.8658e-03  3:21:19 6660

 turbulent viscosity limited to viscosity ratio of 1.000000e+05 in 15 cells 

 Reversed flow on 4385 faces (100.0% area) of pressure-outlet 24.

 Reversed flow on 1582 faces (75.6% area) of pressure-outlet 25.
  3341  2.5997e-01  1.7797e-03  1.8398e-03  1.7794e-03  2.8806e-03  7.4693e-03  3:25:26 6659

 turbulent viscosity limited to viscosity ratio of 1.000000e+05 in 9 cells 

 Reversed flow on 4385 faces (100.0% area) of pressure-outlet 24.

 Reversed flow on 1582 faces (75.6% area) of pressure-outlet 25.
  3342  2.6007e-01  1.7984e-03  1.8373e-03  1.7813e-03  2.8733e-03  7.4878e-03  3:06:31 6658

 turbulent viscosity limited to viscosity ratio of 1.000000e+05 in 16 cells 

 Reversed flow on 4385 faces (100.0% area) of pressure-outlet 24.

 Reversed flow on 1582 faces (75.6% area) of pressure-outlet 25.
  3343  2.6011e-01  1.8160e-03  1.8368e-03  1.7844e-03  2.8823e-03  7.4912e-03  2:51:23 6657

 turbulent viscosity limited to viscosity ratio of 1.000000e+05 in 3 cells 

 Reversed flow on 4385 faces (100.0% area) of pressure-outlet 24.

 Reversed flow on 1580 faces (75.5% area) of pressure-outlet 25.
  3344  2.6002e-01  1.8304e-03  1.8294e-03  1.7860e-03  2.8259e-03  7.4539e-03  3:01:27 6656

 Reversed flow on 4385 faces (100.0% area) of pressure-outlet 24.

 Reversed flow on 1581 faces (75.5% area) of pressure-outlet 25.

  iter  continuity  x-velocity  y-velocity  z-velocity           k     epsilon     time/iter
  3345  2.6011e-01  1.8374e-03  1.8214e-03  1.7872e-03  2.7974e-03  7.3626e-03  3:09:30 6655

 Reversed flow on 4383 faces (99.9% area) of pressure-outlet 24.

 Reversed flow on 1581 faces (75.5% area) of pressure-outlet 25.
  3346  2.6056e-01  1.8480e-03  1.8211e-03  1.7895e-03  2.7531e-03  7.6934e-03  3:15:57 6654

 Reversed flow on 4246 faces (96.9% area) of pressure-outlet 24.

 Reversed flow on 1583 faces (75.6% area) of pressure-outlet 25.
  3347  2.5954e-01  1.8450e-03  1.8225e-03  1.7861e-03  2.7051e-03  7.7233e-03  3:21:05 6653

 Reversed flow on 4075 faces (92.7% area) of pressure-outlet 24.

 Reversed flow on 1582 faces (75.6% area) of pressure-outlet 25.
  3348  2.5683e-01  1.8321e-03  1.8174e-03  1.7699e-03  2.6289e-03  7.5983e-03  3:03:01 6652

 Reversed flow on 3967 faces (90.0% area) of pressure-outlet 24.

 Reversed flow on 1582 faces (75.6% area) of pressure-outlet 25.
  3349  2.5414e-01  1.8064e-03  1.8060e-03  1.7427e-03  2.5587e-03  7.5470e-03  3:10:44 6651

 Reversed flow on 3889 faces (88.2% area) of pressure-outlet 24.

 Reversed flow on 1582 faces (75.6% area) of pressure-outlet 25.
  3350  2.5097e-01  1.7854e-03  1.7845e-03  1.7100e-03  2.5434e-03  7.8478e-03  2:54:44 6650

 Reversed flow on 3844 faces (87.1% area) of pressure-outlet 24.

 Reversed flow on 1586 faces (75.7% area) of pressure-outlet 25.
  3351  2.4639e-01  1.7422e-03  1.7533e-03  1.6764e-03  2.4362e-03  7.4454e-03  3:04:05 6649

 Reversed flow on 3845 faces (86.9% area) of pressure-outlet 24.

 Reversed flow on 1587 faces (75.8% area) of pressure-outlet 25.
  3352  2.4219e-01  1.7022e-03  1.7104e-03  1.6419e-03  2.3948e-03  7.2044e-03  2:49:25 6648
Done.

Warning: An error or interrupt occurred while reading the journal file.
Some commands may not have been completed.


> C:/Uinvalid command [C:]
sers/TRY-7220/Anaconda3/envs/pytorch/python.exe e:/LGF/Sim/Script/WinScripy0825.py

> 
0 (..\\src\\mpsystem.c@1221): mpt_read: failed: errno = 10054

0: mpt_read: error: read failed