
              Welcome to ANSYS Fluent 2020 R1

              Copyright 1987-2020 ANSYS, Inc. All Rights Reserved.
              Unauthorized use, distribution or duplication is prohibited.
              This product is subject to U.S. laws governing export and re-export.
              For full Legal Notice, see documentation.

Build Time: Dec  2 2019 14:15:26 EST  Build Id: 10114  
 
Host spawning Node 0 on machine "DESKTOP-8RUTNJQ" (win64).
WARNING: No cached password or password provided.
         use '-pass' or '-cache' to provide password
Host 0 -- ip 192.168.161.95 -- ranks 0 - 99

 host | 0
======|======
    0 : SHM

 Prot -  All Intra-node communication is: SHM


-------------------------------------------------------------------------------
ID    Hostname         Core     O.S.         PID     Vendor        
-------------------------------------------------------------------------------
n99   DESKTOP-8RUTNJQ  100/128  Windows-x64  62324   AMD EPYC 7702 
n98   DESKTOP-8RUTNJQ  99/128   Windows-x64  132620  AMD EPYC 7702 
n97   DESKTOP-8RUTNJQ  98/128   Windows-x64  64812   AMD EPYC 7702 
n96   DESKTOP-8RUTNJQ  97/128   Windows-x64  58744   AMD EPYC 7702 
n95   DESKTOP-8RUTNJQ  96/128   Windows-x64  65668   AMD EPYC 7702 
n94   DESKTOP-8RUTNJQ  95/128   Windows-x64  65632   AMD EPYC 7702 
n93   DESKTOP-8RUTNJQ  94/128   Windows-x64  66684   AMD EPYC 7702 
n92   DESKTOP-8RUTNJQ  93/128   Windows-x64  128112  AMD EPYC 7702 
n91   DESKTOP-8RUTNJQ  92/128   Windows-x64  66020   AMD EPYC 7702 
n90   DESKTOP-8RUTNJQ  91/128   Windows-x64  65744   AMD EPYC 7702 
n89   DESKTOP-8RUTNJQ  90/128   Windows-x64  46996   AMD EPYC 7702 
n88   DESKTOP-8RUTNJQ  89/128   Windows-x64  46520   AMD EPYC 7702 
n87   DESKTOP-8RUTNJQ  88/128   Windows-x64  64284   AMD EPYC 7702 
n86   DESKTOP-8RUTNJQ  87/128   Windows-x64  61940   AMD EPYC 7702 
n85   DESKTOP-8RUTNJQ  86/128   Windows-x64  43152   AMD EPYC 7702 
n84   DESKTOP-8RUTNJQ  85/128   Windows-x64  66244   AMD EPYC 7702 
n83   DESKTOP-8RUTNJQ  84/128   Windows-x64  64040   AMD EPYC 7702 
n82   DESKTOP-8RUTNJQ  83/128   Windows-x64  58988   AMD EPYC 7702 
n81   DESKTOP-8RUTNJQ  82/128   Windows-x64  37776   AMD EPYC 7702 
n80   DESKTOP-8RUTNJQ  81/128   Windows-x64  66180   AMD EPYC 7702 
-------------------------------------------------------------------------------
ID    Hostname         Core     O.S.         PID     Vendor        
-------------------------------------------------------------------------------
n79   DESKTOP-8RUTNJQ  80/128   Windows-x64  121088  AMD EPYC 7702 
n78   DESKTOP-8RUTNJQ  79/128   Windows-x64  63040   AMD EPYC 7702 
n77   DESKTOP-8RUTNJQ  78/128   Windows-x64  63588   AMD EPYC 7702 
n76   DESKTOP-8RUTNJQ  77/128   Windows-x64  43660   AMD EPYC 7702 
n75   DESKTOP-8RUTNJQ  76/128   Windows-x64  56052   AMD EPYC 7702 
n74   DESKTOP-8RUTNJQ  75/128   Windows-x64  63212   AMD EPYC 7702 
n73   DESKTOP-8RUTNJQ  74/128   Windows-x64  56188   AMD EPYC 7702 
n72   DESKTOP-8RUTNJQ  73/128   Windows-x64  58944   AMD EPYC 7702 
n71   DESKTOP-8RUTNJQ  72/128   Windows-x64  66912   AMD EPYC 7702 
n70   DESKTOP-8RUTNJQ  71/128   Windows-x64  64196   AMD EPYC 7702 
n69   DESKTOP-8RUTNJQ  70/128   Windows-x64  63668   AMD EPYC 7702 
n68   DESKTOP-8RUTNJQ  69/128   Windows-x64  62980   AMD EPYC 7702 
n67   DESKTOP-8RUTNJQ  68/128   Windows-x64  65724   AMD EPYC 7702 
n66   DESKTOP-8RUTNJQ  67/128   Windows-x64  65992   AMD EPYC 7702 
n65   DESKTOP-8RUTNJQ  66/128   Windows-x64  59660   AMD EPYC 7702 
n64   DESKTOP-8RUTNJQ  65/128   Windows-x64  30756   AMD EPYC 7702 
n63   DESKTOP-8RUTNJQ  64/128   Windows-x64  53052   AMD EPYC 7702 
n62   DESKTOP-8RUTNJQ  63/128   Windows-x64  28164   AMD EPYC 7702 
n61   DESKTOP-8RUTNJQ  62/128   Windows-x64  52160   AMD EPYC 7702 
n60   DESKTOP-8RUTNJQ  61/128   Windows-x64  54084   AMD EPYC 7702 
-------------------------------------------------------------------------------
ID    Hostname         Core     O.S.         PID     Vendor        
-------------------------------------------------------------------------------
n59   DESKTOP-8RUTNJQ  60/128   Windows-x64  65456   AMD EPYC 7702 
n58   DESKTOP-8RUTNJQ  59/128   Windows-x64  64188   AMD EPYC 7702 
n57   DESKTOP-8RUTNJQ  58/128   Windows-x64  61172   AMD EPYC 7702 
n56   DESKTOP-8RUTNJQ  57/128   Windows-x64  47732   AMD EPYC 7702 
n55   DESKTOP-8RUTNJQ  56/128   Windows-x64  65072   AMD EPYC 7702 
n54   DESKTOP-8RUTNJQ  55/128   Windows-x64  63056   AMD EPYC 7702 
n53   DESKTOP-8RUTNJQ  54/128   Windows-x64  63832   AMD EPYC 7702 
n52   DESKTOP-8RUTNJQ  53/128   Windows-x64  60900   AMD EPYC 7702 
n51   DESKTOP-8RUTNJQ  52/128   Windows-x64  60604   AMD EPYC 7702 
n50   DESKTOP-8RUTNJQ  51/128   Windows-x64  61808   AMD EPYC 7702 
n49   DESKTOP-8RUTNJQ  50/128   Windows-x64  60324   AMD EPYC 7702 
n48   DESKTOP-8RUTNJQ  49/128   Windows-x64  63716   AMD EPYC 7702 
n47   DESKTOP-8RUTNJQ  48/128   Windows-x64  34308   AMD EPYC 7702 
n46   DESKTOP-8RUTNJQ  47/128   Windows-x64  63872   AMD EPYC 7702 
n45   DESKTOP-8RUTNJQ  46/128   Windows-x64  62476   AMD EPYC 7702 
n44   DESKTOP-8RUTNJQ  45/128   Windows-x64  62504   AMD EPYC 7702 
n43   DESKTOP-8RUTNJQ  44/128   Windows-x64  66544   AMD EPYC 7702 
n42   DESKTOP-8RUTNJQ  43/128   Windows-x64  58660   AMD EPYC 7702 
n41   DESKTOP-8RUTNJQ  42/128   Windows-x64  60984   AMD EPYC 7702 
n40   DESKTOP-8RUTNJQ  41/128   Windows-x64  23156   AMD EPYC 7702 
-------------------------------------------------------------------------------
ID    Hostname         Core     O.S.         PID     Vendor        
-------------------------------------------------------------------------------
n39   DESKTOP-8RUTNJQ  40/128   Windows-x64  67344   AMD EPYC 7702 
n38   DESKTOP-8RUTNJQ  39/128   Windows-x64  61020   AMD EPYC 7702 
n37   DESKTOP-8RUTNJQ  38/128   Windows-x64  47472   AMD EPYC 7702 
n36   DESKTOP-8RUTNJQ  37/128   Windows-x64  63328   AMD EPYC 7702 
n35   DESKTOP-8RUTNJQ  36/128   Windows-x64  22620   AMD EPYC 7702 
n34   DESKTOP-8RUTNJQ  35/128   Windows-x64  45992   AMD EPYC 7702 
n33   DESKTOP-8RUTNJQ  34/128   Windows-x64  65432   AMD EPYC 7702 
n32   DESKTOP-8RUTNJQ  33/128   Windows-x64  64684   AMD EPYC 7702 
n31   DESKTOP-8RUTNJQ  32/128   Windows-x64  58532   AMD EPYC 7702 
n30   DESKTOP-8RUTNJQ  31/128   Windows-x64  61344   AMD EPYC 7702 
n29   DESKTOP-8RUTNJQ  30/128   Windows-x64  49568   AMD EPYC 7702 
n28   DESKTOP-8RUTNJQ  29/128   Windows-x64  67056   AMD EPYC 7702 
n27   DESKTOP-8RUTNJQ  28/128   Windows-x64  64352   AMD EPYC 7702 
n26   DESKTOP-8RUTNJQ  27/128   Windows-x64  63392   AMD EPYC 7702 
n25   DESKTOP-8RUTNJQ  26/128   Windows-x64  61960   AMD EPYC 7702 
n24   DESKTOP-8RUTNJQ  25/128   Windows-x64  49292   AMD EPYC 7702 
n23   DESKTOP-8RUTNJQ  24/128   Windows-x64  57840   AMD EPYC 7702 
n22   DESKTOP-8RUTNJQ  23/128   Windows-x64  55968   AMD EPYC 7702 
n21   DESKTOP-8RUTNJQ  22/128   Windows-x64  62836   AMD EPYC 7702 
n20   DESKTOP-8RUTNJQ  21/128   Windows-x64  66136   AMD EPYC 7702 
-------------------------------------------------------------------------------
ID    Hostname         Core     O.S.         PID     Vendor        
-------------------------------------------------------------------------------
n19   DESKTOP-8RUTNJQ  20/128   Windows-x64  61340   AMD EPYC 7702 
n18   DESKTOP-8RUTNJQ  19/128   Windows-x64  61892   AMD EPYC 7702 
n17   DESKTOP-8RUTNJQ  18/128   Windows-x64  65348   AMD EPYC 7702 
n16   DESKTOP-8RUTNJQ  17/128   Windows-x64  64084   AMD EPYC 7702 
n15   DESKTOP-8RUTNJQ  16/128   Windows-x64  63960   AMD EPYC 7702 
n14   DESKTOP-8RUTNJQ  15/128   Windows-x64  63428   AMD EPYC 7702 
n13   DESKTOP-8RUTNJQ  14/128   Windows-x64  62448   AMD EPYC 7702 
n12   DESKTOP-8RUTNJQ  13/128   Windows-x64  65228   AMD EPYC 7702 
n11   DESKTOP-8RUTNJQ  12/128   Windows-x64  64496   AMD EPYC 7702 
n10   DESKTOP-8RUTNJQ  11/128   Windows-x64  62660   AMD EPYC 7702 
n9    DESKTOP-8RUTNJQ  10/128   Windows-x64  65976   AMD EPYC 7702 
n8    DESKTOP-8RUTNJQ  9/128    Windows-x64  47400   AMD EPYC 7702 
n7    DESKTOP-8RUTNJQ  8/128    Windows-x64  48472   AMD EPYC 7702 
n6    DESKTOP-8RUTNJQ  7/128    Windows-x64  65568   AMD EPYC 7702 
n5    DESKTOP-8RUTNJQ  6/128    Windows-x64  60332   AMD EPYC 7702 
n4    DESKTOP-8RUTNJQ  5/128    Windows-x64  59536   AMD EPYC 7702 
n3    DESKTOP-8RUTNJQ  4/128    Windows-x64  52856   AMD EPYC 7702 
n2    DESKTOP-8RUTNJQ  3/128    Windows-x64  66548   AMD EPYC 7702 
n1    DESKTOP-8RUTNJQ  2/128    Windows-x64  62124   AMD EPYC 7702 
n0*   DESKTOP-8RUTNJQ  1/128    Windows-x64  60156   AMD EPYC 7702 
host  DESKTOP-8RUTNJQ           Windows-x64  62864   AMD EPYC 7702 

MPI Option Selected: ibmmpi
Selected system interconnect: default
-------------------------------------------------------------------------------



Cleanup script file is E:\LGF\Sim\Script\\cleanup-fluent-DESKTOP-8RUTNJQ-62640.bat

Reading journal file E:\LGF\Sim\task\0826_1\P_85\J_M100_85_-4700.jou...

> ;Read case
/file/read-case E:\LGF\Sim\basic_Mesh\Model_100.msh

DESKTOP-8RUTNJQ is already loaded (21.1595%).                       Process affinity not being set.

Reading "E:\LGF\Sim\basic_Mesh\Model_100.msh"...

Buffering for file scan...

  209972 nodes, binary.
   42841 nodes, binary.
    3768 mixed wall faces, zone  1, binary.
   34998 triangular wall faces, zone  2, binary.
    6023 triangular wall faces, zone  3, binary.
   11483 triangular wall faces, zone  4, binary.
    5640 triangular wall faces, zone  5, binary.
    2602 triangular interior faces, zone  6, binary.
     310 quadrilateral interior faces, zone  7, binary.
    2662 mixed interior faces, zone  8, binary.
    2776 mixed interior faces, zone  9, binary.
   18821 mixed interior faces, zone 10, binary.
 1189685 mixed interior faces, zone 11, binary.
  263371 mixed interior faces, zone 12, binary.
  203749 mixed interior faces, zone 13, binary.
  217848 triangular interior faces, zone 14, binary.
     637 triangular wall faces, zone 22, binary.
     100 quadrilateral wall faces, zone 23, binary.
    4385 mixed wall faces, zone 24, binary.
    2646 mixed wall faces, zone 25, binary.
    1906 triangular wall faces, zone 26, binary.
    4293 triangular wall faces, zone 27, binary.
    4279 triangular wall faces, zone 28, binary.
    6990 mixed cells, zone 15, binary.
  565192 mixed cells, zone 16, binary.
  128494 mixed cells, zone 17, binary.
   99631 mixed cells, zone 18, binary.
  112217 mixed cells, zone 19, binary.

Building...
     mesh
	auto partitioning mesh by Metis (fast),
	distributing mesh
		parts..................................................,
		faces..................................................,
		nodes..................................................,
		cells..................................................,
        bandwidth reduction using Reverse Cuthill-McKee: 9508/523 = 18.1797
     materials,
     interface,
     domains,
     zones,
	wall_tx_xi
	wall_xi_tx
	i2
	p2
	p1
	i1
	o1
	towparts-xi_zhui
	towparts-tc_tc
	towparts-tx_tx
	towparts-block_block
	towparts-xi_huan
	interior-towparts-xi_zhui
	interior-towparts-tc_tc
	interior-towparts-tx_tx
	interior-towparts-block_block
	interior-towparts-xi_huan
	interior-towparts-block_block-towparts-tc_tc
	interior-towparts-block_block-towparts-tx_tx
	interior-towparts-xi_huan-towparts-xi_zhui
	interior-towparts-block_block-towparts-xi_zhui
	wall-towparts-xi_zhui
	wall-towparts-tc_tc
	wall-towparts-tx_tx
	wall-towparts-block_block
	wall-towparts-xi_huan
     parallel,
Done.

> 
adjoint/                file/                   report/
define/                 mesh/                   solve/
display/                parallel/               surface/
exit                    plot/                   views/

> ; set save
;;/file/auto-save/data-frequency 2000
;;/file/auto-save/case-frequency each-time
;;/file/autosave/root-name "30du.msh.gz"

adjoint/                file/                   report/
define/                 mesh/                   solve/
display/                parallel/               surface/
exit                    plot/                   views/

> ;delete mesh interface
;/define/mesh-interface/delete contact_region

adjoint/                file/                   report/
define/                 mesh/                   solve/
display/                parallel/               surface/
exit                    plot/                   views/

> ;/define/operating-conditions/gravity/ y 0 -9.8 6

adjoint/                file/                   report/
define/                 mesh/                   solve/
display/                parallel/               surface/
exit                    plot/                   views/

> ;scale
;;/mesh/scale 0.125 0.125 0.125

adjoint/                file/                   report/
define/                 mesh/                   solve/
display/                parallel/               surface/
exit                    plot/                   views/

> ;general

adjoint/                file/                   report/
define/                 mesh/                   solve/
display/                parallel/               surface/
exit                    plot/                   views/

> /define/operating-conditions? invalid command [operating-conditions?]
y 0.0 -9.8 0.0

> 
adjoint/                file/                   report/
define/                 mesh/                   solve/
display/                parallel/               surface/
exit                    plot/                   views/

> /define/models steady? Steady solution model is already enabled.
y
invalid command [y]

> ;/define/models unsteady-1st-order? y

adjoint/                file/                   report/
define/                 mesh/                   solve/
display/                parallel/               surface/
exit                    plot/                   views/

> 
adjoint/                file/                   report/
define/                 mesh/                   solve/
display/                parallel/               surface/
exit                    plot/                   views/

> ;define viscous model

adjoint/                file/                   report/
define/                 mesh/                   solve/
display/                parallel/               surface/
exit                    plot/                   views/

> /define/models/viscous/ke-rng? y   ;;swirl?
/define/models/viscous/rng-swirl-model? yes

> 
adjoint/                file/                   report/
define/                 mesh/                   solve/
display/                parallel/               surface/
exit                    plot/                   views/

> 
adjoint/                file/                   report/
define/                 mesh/                   solve/
display/                parallel/               surface/
exit                    plot/                   views/

> ;/define/models/viscous/ke-rng-swirl-model? y
;/define/models/viscous/ke-rng/rng-swirl-model? y

adjoint/                file/                   report/
define/                 mesh/                   solve/
display/                parallel/               surface/
exit                    plot/                   views/

> 
adjoint/                file/                   report/
define/                 mesh/                   solve/
display/                parallel/               surface/
exit                    plot/                   views/

> ;/define/models/viscous/ke-realizable? y            

adjoint/                file/                   report/
define/                 mesh/                   solve/
display/                parallel/               surface/
exit                    plot/                   views/

> 
adjoint/                file/                   report/
define/                 mesh/                   solve/
display/                parallel/               surface/
exit                    plot/                   views/

> ; modify boundary-condition types

adjoint/                file/                   report/
define/                 mesh/                   solve/
display/                parallel/               surface/
exit                    plot/                   views/

> ;/define/boundary-conditions/zone-type contact_region-src wall
;/define/boundary-conditions/zone-type contact_region-trg wall
/define/boundary-conditions/zone-type i1 velocity-inlet

> /define/boundary-conditions/zone-type i2 velocity-inlet

> 
adjoint/                file/                   report/
define/                 mesh/                   solve/
display/                parallel/               surface/
exit                    plot/                   views/

> /define/boundary-conditions/zone-type o1 pressure-outlet

> /define/boundary-conditions/zone-type p1 pressure-outlet

> /define/boundary-conditions/zone-type p2 pressure-outlet

> 
adjoint/                file/                   report/
define/                 mesh/                   solve/
display/                parallel/               surface/
exit                    plot/                   views/

> ;set inlet boundary-conditions
/define/boundary-conditions/velocity-inlet (i2 i1)
i2  n n y y n 10 n 0 n n y 5 10

> /define/boundary-conditions/velocity-inlet (i2 i1)
i1  n n y y n 85 n 0 n n y 5 10

> /define/boundary-conditions/pressure-outlet (p2 p1 o1)
o1  y n -4700 n y n n y 5 10 y n n n

> /define/boundary-conditions/pressure-outlet (p2 p1 o1)
p1  y n 0 n y n n y 5 10 y n n n 

> /define/boundary-conditions/pressure-outlet (p2 p1 o1)
p2  y n 0 n y n n y 5 10 y n n n 

> 
adjoint/                file/                   report/
define/                 mesh/                   solve/
display/                parallel/               surface/
exit                    plot/                   views/

> ;;;;n y y n 0 y n 51.96 n 30 n 0 y n 1 n 1
;/define/boundary-conditions/copy-bc inlet front ()
;/define/boundary-conditions/wall lj y motion-bc-moving n n n n 11.11 1 0 0 n n 0 n 0.5

adjoint/                file/                   report/
define/                 mesh/                   solve/
display/                parallel/               surface/
exit                    plot/                   views/

> ; set solution controls
;/solve/set/p-v-coupling 21
;20: SIMPLE
;21: SIMPLEC
;22: PISO
;24: coupled
;/solve/set/under-relaxation pressure 0.5
;/solve/set/under-relaxation density 0.8
;/solve/set/under-relaxation body-force  0.8
;/solve/set/under-relaxation mom 0.5
;/solve/set/under-relaxation turb-viscosity 0.6
;/solve/set/under-relaxation k 0.6
;/solve/set/under-relaxation epsilon 0.6
;/solve/set/under-relaxation body-force 0.8 turb-viscosity 0.8 density 0.8
;/solve/set/discretization-scheme pressure 10 mom 1 k 1 epsilon 1

adjoint/                file/                   report/
define/                 mesh/                   solve/
display/                parallel/               surface/
exit                    plot/                   views/

> ;set pressure
;10:standard
;11:linear
;12:second order
;13:body force weighted
;14:presto!

adjoint/                file/                   report/
define/                 mesh/                   solve/
display/                parallel/               surface/
exit                    plot/                   views/

> ;set mom
;0:firdst order upwind
;1:second order upwind
;2:power law
;4:quick
;6:third-order muscl

adjoint/                file/                   report/
define/                 mesh/                   solve/
display/                parallel/               surface/
exit                    plot/                   views/

> ;set k
;0:firdst order upwind
;1:second order upwind
;2:power law
;4:quick
;6:third-order muscl

adjoint/                file/                   report/
define/                 mesh/                   solve/
display/                parallel/               surface/
exit                    plot/                   views/

> ;set epdst order upwind
;1:second order upwind
;2:power law
;4:silon
;0:firquick
;6:third-order muscl
;;;;;;;;;;;;;;;;;;;;;;;;;;;;;;;
;;;;;;;;;;;;;;;;;;;;;;;;;;;;;;set monitor point line surface
;;;;;;;;;;;;;;;;;;;;;;;;;;;;;;
/surface/point-surface/ cirPoint1 1.8 2 7

> /surface/point-surface/ cirPoint2 1.5 2 7

> /surface/point-surface/ cirPoint3 1 2 7

> /surface/point-surface/ cirPoint4 0 2 7

> /surface/point-surface/ cirPoint1_synYZ -1.8 2 7

> /surface/point-surface/ cirPoint2_synYZ -1.5 2 7

> /surface/point-surface/ cirPoint3_synYZ -1 2 7

> /surface/point-surface/ cirPoint1_synO -1.8 -2 7

> /surface/point-surface/ cirPoint2_synO -1.5 -2 7

> /surface/point-surface/ cirPoint3_synO -1 -2 7

> 
adjoint/                file/                   report/
define/                 mesh/                   solve/
display/                parallel/               surface/
exit                    plot/                   views/

> /surface/line-surface/ line_1 0 0 2 0 0 7

> 
adjoint/                file/                   report/
define/                 mesh/                   solve/
display/                parallel/               surface/
exit                    plot/                   views/

> /surface/line-surface/ line_2 1 2 2 1 2 7

> /surface/line-surface/ line_2_synYZ -1 2 2 -1 2 7

> 
adjoint/                file/                   report/
define/                 mesh/                   solve/
display/                parallel/               surface/
exit                    plot/                   views/

> /surface/line-surface/ line_3 1.5 2 2 1.5 2 7

> /surface/line-surface/ line_3_synYZ -1.5 2 2 -1.5 2 7

> 
adjoint/                file/                   report/
define/                 mesh/                   solve/
display/                parallel/               surface/
exit                    plot/                   views/

> 
adjoint/                file/                   report/
define/                 mesh/                   solve/
display/                parallel/               surface/
exit                    plot/                   views/

> 
adjoint/                file/                   report/
define/                 mesh/                   solve/
display/                parallel/               surface/
exit                    plot/                   views/

> 
adjoint/                file/                   report/
define/                 mesh/                   solve/
display/                parallel/               surface/
exit                    plot/                   views/

> 
adjoint/                file/                   report/
define/                 mesh/                   solve/
display/                parallel/               surface/
exit                    plot/                   views/

> /surface/plane-slice/ YuanPian_0_0_3 0 0 1 3

> /surface/plane-slice/ YuanPian_0_0_4 0 0 1 4

> /surface/plane-slice/ YuanPian_0_0_5 0 0 1 5

> /surface/plane-slice/ YuanPian_0_0_6 0 0 1 6

> /surface/plane-slice/ YuanPian_0_0_7 0 0 1 7

> 
adjoint/                file/                   report/
define/                 mesh/                   solve/
display/                parallel/               surface/
exit                    plot/                   views/

> /surface/transform-surface/ 10 ()
Center Of Rotation
 0 0 0 
Angle of Rotation
0 0 0 
Translation Distance
0 0 0 0 xiKou 

> 
adjoint/                file/                   report/
define/                 mesh/                   solve/
display/                parallel/               surface/
exit                    plot/                   views/

> 
adjoint/                file/                   report/
define/                 mesh/                   solve/
display/                parallel/               surface/
exit                    plot/                   views/

> 
adjoint/                file/                   report/
define/                 mesh/                   solve/
display/                parallel/               surface/
exit                    plot/                   views/

> 
adjoint/                file/                   report/
define/                 mesh/                   solve/
display/                parallel/               surface/
exit                    plot/                   views/

> ;/solve/monitors/surface/set-monitor miao_V_huan_2 ? velocity-magnitude miao31 miao32 miao33 miao34 miao35 miao36   n n y miao_V_huan_2 100

adjoint/                file/                   report/
define/                 mesh/                   solve/
display/                parallel/               surface/
exit                    plot/                   views/

> 
adjoint/                file/                   report/
define/                 mesh/                   solve/
display/                parallel/               surface/
exit                    plot/                   views/

> /solve/monitors/surface/set-monitor cirPoint1  "Sum" velocity-magnitude cirPoint1 () n n y E:\LGF\Sim\task\0826_1\P_85\txtData\cirPoint1_-4700.txt 100
Information: Converting monitor cirpoint1 to report definition.

> /solve/monitors/surface/set-monitor cirPoint2  "Sum" velocity-magnitude cirPoint2 () n n y E:\LGF\Sim\task\0826_1\P_85\txtData\cirPoint2_-4700.txt 100
Information: Converting monitor cirpoint2 to report definition.

> /solve/monitors/surface/set-monitor cirPoint3  "Sum" velocity-magnitude cirPoint3 () n n y E:\LGF\Sim\task\0826_1\P_85\txtData\cirPoint3_-4700.txt 100
Information: Converting monitor cirpoint3 to report definition.

> /solve/monitors/surface/set-monitor cirPoint1-2  "Sum" velocity-magnitude cirPoint1 cirPoint2 () n n y E:\LGF\Sim\task\0826_1\P_85\txtData\cirPoint1-2_-4700.txt 100
Information: Converting monitor cirpoint1-2 to report definition.

> 
adjoint/                file/                   report/
define/                 mesh/                   solve/
display/                parallel/               surface/
exit                    plot/                   views/

> /solve/monitors/surface/set-monitor line_1   "Facet Average" velocity-magnitude line_1 () n n y E:\LGF\Sim\task\0826_1\P_85\txtData\line_1_-4700.txt 100
Information: Converting monitor line_1 to report definition.

> /solve/monitors/surface/set-monitor line_2   "Facet Average" velocity-magnitude line_2 () n n y E:\LGF\Sim\task\0826_1\P_85\txtData\line_2_-4700.txt 100
Information: Converting monitor line_2 to report definition.

> 
adjoint/                file/                   report/
define/                 mesh/                   solve/
display/                parallel/               surface/
exit                    plot/                   views/

> /solve/monitors/surface/set-monitor YuanPian_0_0_5   "Facet Average" velocity-magnitude YuanPian_0_0_5 () n n y E:\LGF\Sim\task\0826_1\P_85\txtData\YuanPian_0_0_5_-4700.txt 100
Information: Converting monitor yuanpian_0_0_5 to report definition.

> 
adjoint/                file/                   report/
define/                 mesh/                   solve/
display/                parallel/               surface/
exit                    plot/                   views/

> /solve/monitors/surface/set-monitor xiKou   "Facet Average" velocity-magnitude xiKou () n n y E:\LGF\Sim\task\0826_1\P_85\txtData\xiKou_-4700.txt 100
Information: Converting monitor xikou to report definition.

> 
adjoint/                file/                   report/
define/                 mesh/                   solve/
display/                parallel/               surface/
exit                    plot/                   views/

> ;/solve/monitors/surface/set-monitor miao_V_huan_4  "Sum" velocity-magnitude miao37 () n n y E:\LGF\Sim\task\0826_1\P_85\txtData\miao_V_huan_4_-4700.txt 100

adjoint/                file/                   report/
define/                 mesh/                   solve/
display/                parallel/               surface/
exit                    plot/                   views/

> ;set monitor residuals
/solve/monitors/residual/convergence-criteria 0.000001 0.000001 0.000001 0.000001 0.000001 0.000001

> 
adjoint/                file/                   report/
define/                 mesh/                   solve/
display/                parallel/               surface/
exit                    plot/                   views/

> ;set force monitors
;compile C
;/define/user-defined/compiled-functions/compile libudf yes FandMmonitor.c "" "" 
; load C
;/define/user-defined/compiled-functions/load libudf
;;    set hook
;/define/user-defined/function-hooks/execute-at-end "force_and_moment_print::libudf" "" 

adjoint/                file/                   report/
define/                 mesh/                   solve/
display/                parallel/               surface/
exit                    plot/                   views/

> ;/solve/monitors/force/set-drag-monitor cx y che1 zxj1 zxj2 che2 zxj3 zxj4 che3 zxj5 zxj6 () n y "cx-CRH380A" n y 1 0 0
;/solve/monitors/force/set-drag-monitor cy y che1 zxj1 zxj2 che2 zxj3 zxj4 che3 zxj5 zxj6 () n y "cy-1D-30" n y 0 1 0
;/solve/monitors/force/set-drag-monitor cz y che1 zxj1 zxj2 che2 zxj3 zxj4 che3 zxj5 zxj6 () n y "cz-CRH380A" n y 0 0 1

adjoint/                file/                   report/
define/                 mesh/                   solve/
display/                parallel/               surface/
exit                    plot/                   views/

> ;/solve/monitors/force/set-moment-monitor mx y che1 zxj1 zxj2 fd1 che2 zxj3 zxj4 fd2 che3 zxj5 zxj6 () n y "mx-1D-30" n y 0 0 0 1 0 0
;/solve/monitors/force/set-moment-monitor my y che1 zxj1 zxj2 fd1 che2 zxj3 zxj4 fd2 che3 zxj5 zxj6 () n y "my-1D-30" n y 0 0 0 0 1 0
;/solve/monitors/force/set-moment-monitor mz y che1 zxj1 zxj2 fd1 che2 zxj3 zxj4 fd2 che3 zxj5 zxj6 () n y "mz-1D-30" n y 0 0 0 0 0 1

adjoint/                file/                   report/
define/                 mesh/                   solve/
display/                parallel/               surface/
exit                    plot/                   views/

> 
adjoint/                file/                   report/
define/                 mesh/                   solve/
display/                parallel/               surface/
exit                    plot/                   views/

> ;init solve set
/solve/initialize/reference-frame Current Reference Frame : Relative to Cell Zoneabsolute

> /solve/initialize/initialize-flow

> ;solve/set/time-step 0.00005
/solve/iterate 500

  iter  continuity  x-velocity  y-velocity  z-velocity           k     epsilon     time/iter
     1  1.0000e+00  1.0570e+04  9.2552e+02  1.5581e+04  1.9464e+00  1.5782e+03  0:08:19  499

 turbulent viscosity limited to viscosity ratio of 1.000000e+05 in 3 cells 

 Reversed flow on 4385 faces (100.0% area) of pressure-outlet 24.

 Reversed flow on 2646 faces (100.0% area) of pressure-outlet 25.
     2  5.9591e-01  1.0206e-02  8.6617e-03  2.6013e-02  2.7781e-01  2.3281e+00  0:09:58  498

 turbulent viscosity limited to viscosity ratio of 1.000000e+05 in 11 cells 

 Reversed flow on 27 faces (4.7% area) of pressure-outlet 22.

 Reversed flow on 3527 faces (77.7% area) of pressure-outlet 24.
     3  7.6035e-01  2.5598e-02  2.2901e-02  3.0396e-02  3.5485e-01  8.6708e-01  0:12:55  497

 Reversed flow on 27 faces (5.1% area) of pressure-outlet 22.

 Reversed flow on 1874 faces (48.9% area) of pressure-outlet 24.

 Reversed flow on 2434 faces (89.8% area) of pressure-outlet 25.
     4  5.8636e-01  1.1071e-02  1.0620e-02  1.7378e-02  1.4756e-01  5.8579e-01  0:11:58  496

 Reversed flow on 29 faces (5.5% area) of pressure-outlet 22.

 Reversed flow on 2333 faces (60.4% area) of pressure-outlet 24.

 Reversed flow on 26 faces (0.3% area) of pressure-outlet 25.
     5  5.2110e-01  1.1544e-02  1.0638e-02  1.0484e-02  9.2478e-02  4.6542e-01  0:14:30  495

 Reversed flow on 7 faces (1.4% area) of pressure-outlet 22.

 Reversed flow on 2952 faces (74.9% area) of pressure-outlet 24.

 Reversed flow on 575 faces (14.0% area) of pressure-outlet 25.
     6  4.4598e-01  8.5667e-03  8.0025e-03  8.6429e-03  4.8690e-02  3.0606e-01  0:14:53  494

 Reversed flow on 3 faces (0.6% area) of pressure-outlet 22.

 Reversed flow on 2723 faces (68.7% area) of pressure-outlet 24.

 Reversed flow on 59 faces (0.7% area) of pressure-outlet 25.
     7  3.9949e-01  7.0795e-03  6.4075e-03  5.8829e-03  2.7655e-02  1.4132e-01  0:15:10  493

 Reversed flow on 2997 faces (75.6% area) of pressure-outlet 24.

 Reversed flow on 1006 faces (30.3% area) of pressure-outlet 25.
     8  3.6449e-01  6.4314e-03  5.8077e-03  5.5597e-03  2.0453e-02  1.2652e-01  0:15:23  492

 Reversed flow on 3064 faces (76.9% area) of pressure-outlet 24.

 Reversed flow on 998 faces (33.2% area) of pressure-outlet 25.
     9  3.3360e-01  5.5687e-03  5.0135e-03  4.5436e-03  1.6662e-02  1.0284e-01  0:17:12  491

 turbulent viscosity limited to viscosity ratio of 1.000000e+05 in 1480 cells 

 Reversed flow on 3438 faces (85.3% area) of pressure-outlet 24.

 Reversed flow on 1098 faces (42.0% area) of pressure-outlet 25.
    10  3.1401e-01  4.9457e-03  4.5321e-03  4.1744e-03  1.2214e-02  7.4378e-02  0:17:00  490

 turbulent viscosity limited to viscosity ratio of 1.000000e+05 in 5124 cells 

 Reversed flow on 3624 faces (89.2% area) of pressure-outlet 24.

 Reversed flow on 1058 faces (46.6% area) of pressure-outlet 25.
    11  2.8394e-01  4.1721e-03  3.9043e-03  3.7036e-03  9.0311e-03  5.5503e-02  0:15:12  489

 Reversed flow on 3889 faces (93.3% area) of pressure-outlet 24.

 Reversed flow on 1080 faces (51.9% area) of pressure-outlet 25.

  iter  continuity  x-velocity  y-velocity  z-velocity           k     epsilon     time/iter
    12  2.5852e-01  3.7160e-03  3.5499e-03  3.3876e-03  7.5212e-03  3.5332e-02  0:13:46  488

 Reversed flow on 4293 faces (98.0% area) of pressure-outlet 24.

 Reversed flow on 1250 faces (60.1% area) of pressure-outlet 25.
    13  2.3394e-01  3.3507e-03  3.2691e-03  2.9723e-03  6.6797e-03  2.6927e-02  0:14:14  487

 Reversed flow on 4366 faces (99.5% area) of pressure-outlet 24.

 Reversed flow on 1357 faces (65.2% area) of pressure-outlet 25.
    14  2.2137e-01  3.2301e-03  3.1841e-03  2.8109e-03  6.9766e-03  2.4978e-02  0:12:59  486

 Reversed flow on 4381 faces (99.9% area) of pressure-outlet 24.

 Reversed flow on 1325 faces (63.9% area) of pressure-outlet 25.
    15  2.1244e-01  3.0802e-03  3.0225e-03  2.6949e-03  7.0698e-03  2.3842e-02  0:11:59  485

 Reversed flow on 4384 faces (100.0% area) of pressure-outlet 24.

 Reversed flow on 1172 faces (57.0% area) of pressure-outlet 25.
    16  2.0374e-01  2.9702e-03  2.9007e-03  2.6516e-03  6.9337e-03  2.3124e-02  0:16:01  484

 Reversed flow on 4385 faces (100.0% area) of pressure-outlet 24.

 Reversed flow on 1149 faces (56.0% area) of pressure-outlet 25.
    17  1.9671e-01  2.8724e-03  2.7838e-03  2.5924e-03  6.6523e-03  2.3229e-02  0:16:00  483

 Reversed flow on 4383 faces (99.9% area) of pressure-outlet 24.

 Reversed flow on 1201 faces (58.4% area) of pressure-outlet 25.
    18  1.8918e-01  2.8045e-03  2.6822e-03  2.5482e-03  6.1442e-03  2.2128e-02  0:16:00  482

 Reversed flow on 4381 faces (99.9% area) of pressure-outlet 24.

 Reversed flow on 1230 faces (59.7% area) of pressure-outlet 25.
    19  1.7987e-01  2.6520e-03  2.5253e-03  2.4129e-03  5.6626e-03  2.0769e-02  0:14:22  481

 Reversed flow on 4385 faces (100.0% area) of pressure-outlet 24.

 Reversed flow on 1242 faces (60.1% area) of pressure-outlet 25.
    20  1.7098e-01  2.5467e-03  2.4280e-03  2.3153e-03  5.2060e-03  2.0444e-02  0:16:16  480

 Reversed flow on 4385 faces (100.0% area) of pressure-outlet 24.

 Reversed flow on 1242 faces (60.0% area) of pressure-outlet 25.
    21  1.6351e-01  2.4798e-03  2.3668e-03  2.2524e-03  4.7831e-03  1.9135e-02  0:16:11  479

 Reversed flow on 4385 faces (100.0% area) of pressure-outlet 24.

 Reversed flow on 1256 faces (60.4% area) of pressure-outlet 25.
    22  1.5803e-01  2.4577e-03  2.3526e-03  2.2324e-03  4.4353e-03  1.7460e-02  0:14:31  478

 Reversed flow on 4385 faces (100.0% area) of pressure-outlet 24.

 Reversed flow on 1260 faces (60.6% area) of pressure-outlet 25.

  iter  continuity  x-velocity  y-velocity  z-velocity           k     epsilon     time/iter
    23  1.5526e-01  2.4709e-03  2.3589e-03  2.2415e-03  4.2313e-03  1.6278e-02  0:16:21  477

 Reversed flow on 4385 faces (100.0% area) of pressure-outlet 24.

 Reversed flow on 1264 faces (60.7% area) of pressure-outlet 25.
    24  1.5446e-01  2.5155e-03  2.3886e-03  2.2622e-03  4.1071e-03  1.5237e-02  0:16:14  476

 Reversed flow on 4385 faces (100.0% area) of pressure-outlet 24.

 Reversed flow on 1294 faces (62.0% area) of pressure-outlet 25.
    25  1.5528e-01  2.5855e-03  2.4441e-03  2.3098e-03  4.0867e-03  1.4424e-02  0:14:32  475

 Reversed flow on 4385 faces (100.0% area) of pressure-outlet 24.

 Reversed flow on 1330 faces (63.7% area) of pressure-outlet 25.
    26  1.5670e-01  2.6558e-03  2.5043e-03  2.3563e-03  4.1543e-03  1.4141e-02  0:14:46  474

 turbulent viscosity limited to viscosity ratio of 1.000000e+05 in 5 cells 

 Reversed flow on 4385 faces (100.0% area) of pressure-outlet 24.

 Reversed flow on 1344 faces (64.4% area) of pressure-outlet 25.
    27  1.5839e-01  2.7291e-03  2.5744e-03  2.4077e-03  4.3531e-03  1.4596e-02  0:14:57  473

 turbulent viscosity limited to viscosity ratio of 1.000000e+05 in 6 cells 

 Reversed flow on 4385 faces (100.0% area) of pressure-outlet 24.

 Reversed flow on 1371 faces (65.7% area) of pressure-outlet 25.
    28  1.6062e-01  2.7963e-03  2.6382e-03  2.4726e-03  4.7678e-03  1.5094e-02  0:15:05  472

 turbulent viscosity limited to viscosity ratio of 1.000000e+05 in 5 cells 

 Reversed flow on 4385 faces (100.0% area) of pressure-outlet 24.

 Reversed flow on 1388 faces (66.5% area) of pressure-outlet 25.
    29  1.6331e-01  2.8828e-03  2.7053e-03  2.5462e-03  5.2814e-03  1.6303e-02  0:15:11  471

 turbulent viscosity limited to viscosity ratio of 1.000000e+05 in 1 cells 

 Reversed flow on 4385 faces (100.0% area) of pressure-outlet 24.

 Reversed flow on 1404 faces (67.2% area) of pressure-outlet 25.
    30  1.6636e-01  2.9767e-03  2.7892e-03  2.6275e-03  5.7189e-03  1.7970e-02  0:13:41  470

 turbulent viscosity limited to viscosity ratio of 1.000000e+05 in 7 cells 

 Reversed flow on 1 face (0.2% area) of pressure-outlet 22.

 Reversed flow on 4385 faces (100.0% area) of pressure-outlet 24.

 Reversed flow on 1418 faces (67.9% area) of pressure-outlet 25.
    31  1.7061e-01  3.0946e-03  2.8862e-03  2.7162e-03  6.4212e-03  1.9501e-02  0:12:29  469

 turbulent viscosity limited to viscosity ratio of 1.000000e+05 in 88 cells 

 Reversed flow on 6 faces (1.0% area) of pressure-outlet 22.

 Reversed flow on 4385 faces (100.0% area) of pressure-outlet 24.

 Reversed flow on 1433 faces (68.6% area) of pressure-outlet 25.
    32  1.7525e-01  3.2351e-03  3.0078e-03  2.8403e-03  7.6772e-03  2.2327e-02  0:13:05  468

 turbulent viscosity limited to viscosity ratio of 1.000000e+05 in 197 cells 

 Reversed flow on 11 faces (1.7% area) of pressure-outlet 22.

 Reversed flow on 4385 faces (100.0% area) of pressure-outlet 24.

 Reversed flow on 1447 faces (69.3% area) of pressure-outlet 25.
    33  1.8080e-01  3.4068e-03  3.1594e-03  3.0075e-03  1.0445e-02  2.6690e-02  0:13:34  467

 turbulent viscosity limited to viscosity ratio of 1.000000e+05 in 289 cells 

 Reversed flow on 13 faces (1.9% area) of pressure-outlet 22.

 Reversed flow on 4385 faces (100.0% area) of pressure-outlet 24.

 Reversed flow on 1453 faces (69.6% area) of pressure-outlet 25.

  iter  continuity  x-velocity  y-velocity  z-velocity           k     epsilon     time/iter
    34  1.8724e-01  3.6123e-03  3.3239e-03  3.1928e-03  1.4616e-02  3.1299e-02  0:13:56  466

 turbulent viscosity limited to viscosity ratio of 1.000000e+05 in 416 cells 

 Reversed flow on 17 faces (2.4% area) of pressure-outlet 22.

 Reversed flow on 4385 faces (100.0% area) of pressure-outlet 24.

 Reversed flow on 1470 faces (70.3% area) of pressure-outlet 25.
    35  1.9464e-01  3.8010e-03  3.4901e-03  3.3914e-03  1.7268e-02  3.6440e-02  0:14:13  465

 turbulent viscosity limited to viscosity ratio of 1.000000e+05 in 1316 cells 

 Reversed flow on 14 faces (2.0% area) of pressure-outlet 22.

 Reversed flow on 4385 faces (100.0% area) of pressure-outlet 24.

 Reversed flow on 1484 faces (71.0% area) of pressure-outlet 25.
    36  2.0343e-01  3.9679e-03  3.6625e-03  3.5747e-03  1.8642e-02  4.1084e-02  0:16:00  464

 turbulent viscosity limited to viscosity ratio of 1.000000e+05 in 3517 cells 

 Reversed flow on 12 faces (1.7% area) of pressure-outlet 22.

 Reversed flow on 4385 faces (100.0% area) of pressure-outlet 24.

 Reversed flow on 1491 faces (71.3% area) of pressure-outlet 25.
    37  2.1526e-01  4.1947e-03  3.9280e-03  3.7986e-03  1.7587e-02  4.0452e-02  0:15:51  463

 turbulent viscosity limited to viscosity ratio of 1.000000e+05 in 3483 cells 

 Reversed flow on 9 faces (1.2% area) of pressure-outlet 22.

 Reversed flow on 4385 faces (100.0% area) of pressure-outlet 24.

 Reversed flow on 1500 faces (71.8% area) of pressure-outlet 25.
    38  2.2524e-01  4.1559e-03  3.9742e-03  3.8608e-03  1.4992e-02  3.4103e-02  0:14:12  462

 turbulent viscosity limited to viscosity ratio of 1.000000e+05 in 2175 cells 

 Reversed flow on 11 faces (1.5% area) of pressure-outlet 22.

 Reversed flow on 4385 faces (100.0% area) of pressure-outlet 24.

 Reversed flow on 1512 faces (72.4% area) of pressure-outlet 25.
    39  2.2920e-01  3.8608e-03  3.7885e-03  3.6823e-03  1.2894e-02  2.8416e-02  0:15:56  461

 turbulent viscosity limited to viscosity ratio of 1.000000e+05 in 639 cells 

 Reversed flow on 13 faces (1.9% area) of pressure-outlet 22.

 Reversed flow on 4385 faces (100.0% area) of pressure-outlet 24.

 Reversed flow on 1523 faces (72.8% area) of pressure-outlet 25.
    40  2.2978e-01  3.5361e-03  3.5333e-03  3.4788e-03  1.0793e-02  2.4593e-02  0:15:48  460

 turbulent viscosity limited to viscosity ratio of 1.000000e+05 in 1086 cells 

 Reversed flow on 13 faces (1.8% area) of pressure-outlet 22.

 Reversed flow on 4385 faces (100.0% area) of pressure-outlet 24.

 Reversed flow on 1513 faces (72.3% area) of pressure-outlet 25.
    41  2.2723e-01  3.2565e-03  3.3017e-03  3.3130e-03  9.7005e-03  2.3476e-02  0:15:40  459

 turbulent viscosity limited to viscosity ratio of 1.000000e+05 in 684 cells 

 Reversed flow on 13 faces (1.8% area) of pressure-outlet 22.

 Reversed flow on 4385 faces (100.0% area) of pressure-outlet 24.

 Reversed flow on 1513 faces (72.3% area) of pressure-outlet 25.
    42  2.2248e-01  2.9935e-03  3.0635e-03  3.0985e-03  1.0101e-02  2.4383e-02  0:17:05  458

 turbulent viscosity limited to viscosity ratio of 1.000000e+05 in 38 cells 

 Reversed flow on 11 faces (1.5% area) of pressure-outlet 22.

 Reversed flow on 4385 faces (100.0% area) of pressure-outlet 24.

 Reversed flow on 1517 faces (72.5% area) of pressure-outlet 25.
    43  2.1725e-01  2.8397e-03  2.9045e-03  2.9463e-03  1.0249e-02  2.6225e-02  0:18:13  457

 turbulent viscosity limited to viscosity ratio of 1.000000e+05 in 436 cells 

 Reversed flow on 8 faces (1.0% area) of pressure-outlet 22.

 Reversed flow on 4385 faces (100.0% area) of pressure-outlet 24.

 Reversed flow on 1508 faces (72.1% area) of pressure-outlet 25.
    44  2.1868e-01  2.9023e-03  2.9046e-03  2.9672e-03  9.7085e-03  2.6021e-02  0:17:35  456

 turbulent viscosity limited to viscosity ratio of 1.000000e+05 in 473 cells 

 Reversed flow on 4385 faces (100.0% area) of pressure-outlet 24.

 Reversed flow on 1523 faces (72.8% area) of pressure-outlet 25.

  iter  continuity  x-velocity  y-velocity  z-velocity           k     epsilon     time/iter
    45  2.2362e-01  2.9864e-03  2.9122e-03  2.9838e-03  9.2547e-03  2.4324e-02  0:18:35  455

 turbulent viscosity limited to viscosity ratio of 1.000000e+05 in 503 cells 

 Reversed flow on 4385 faces (100.0% area) of pressure-outlet 24.

 Reversed flow on 1541 faces (73.7% area) of pressure-outlet 25.
    46  2.2752e-01  2.9986e-03  2.8887e-03  2.9577e-03  8.4898e-03  2.1742e-02  0:16:21  454

 turbulent viscosity limited to viscosity ratio of 1.000000e+05 in 376 cells 

 Reversed flow on 4385 faces (100.0% area) of pressure-outlet 24.

 Reversed flow on 1548 faces (74.0% area) of pressure-outlet 25.
    47  2.2513e-01  2.8567e-03  2.7824e-03  2.8223e-03  7.2666e-03  1.8382e-02  0:16:04  453

 turbulent viscosity limited to viscosity ratio of 1.000000e+05 in 55 cells 

 Reversed flow on 4385 faces (100.0% area) of pressure-outlet 24.

 Reversed flow on 1555 faces (74.4% area) of pressure-outlet 25.
    48  2.2235e-01  2.7367e-03  2.6832e-03  2.7148e-03  6.2606e-03  1.6226e-02  0:15:50  452

 Reversed flow on 4385 faces (100.0% area) of pressure-outlet 24.

 Reversed flow on 1564 faces (74.8% area) of pressure-outlet 25.
    49  2.2065e-01  2.6411e-03  2.6020e-03  2.6353e-03  5.4701e-03  1.4132e-02  0:15:39  451

 Reversed flow on 4385 faces (100.0% area) of pressure-outlet 24.

 Reversed flow on 1578 faces (75.4% area) of pressure-outlet 25.
    50  2.1809e-01  2.5456e-03  2.5178e-03  2.5527e-03  4.8737e-03  1.2467e-02  0:15:29  450

 Reversed flow on 4385 faces (100.0% area) of pressure-outlet 24.

 Reversed flow on 1588 faces (75.8% area) of pressure-outlet 25.
    51  2.1532e-01  2.4401e-03  2.4253e-03  2.4521e-03  4.3935e-03  1.0908e-02  0:13:52  449

 Reversed flow on 4385 faces (100.0% area) of pressure-outlet 24.

 Reversed flow on 1597 faces (76.2% area) of pressure-outlet 25.
    52  2.1192e-01  2.3285e-03  2.3238e-03  2.3383e-03  4.0585e-03  1.0059e-02  0:14:03  448

 turbulent viscosity limited to viscosity ratio of 1.000000e+05 in 1 cells 

 Reversed flow on 4385 faces (100.0% area) of pressure-outlet 24.

 Reversed flow on 1610 faces (76.8% area) of pressure-outlet 25.
    53  2.0822e-01  2.2198e-03  2.2154e-03  2.2249e-03  3.7780e-03  9.1753e-03  0:14:12  447

 turbulent viscosity limited to viscosity ratio of 1.000000e+05 in 5 cells 

 Reversed flow on 4385 faces (100.0% area) of pressure-outlet 24.

 Reversed flow on 1618 faces (77.1% area) of pressure-outlet 25.
    54  2.0380e-01  2.1127e-03  2.1131e-03  2.1097e-03  3.5232e-03  8.6827e-03  0:14:18  446

 Reversed flow on 4385 faces (100.0% area) of pressure-outlet 24.

 Reversed flow on 1630 faces (77.6% area) of pressure-outlet 25.
    55  1.9984e-01  2.0174e-03  2.0124e-03  2.0009e-03  3.2652e-03  8.1193e-03  0:12:54  445

 Reversed flow on 4344 faces (99.5% area) of pressure-outlet 24.

 Reversed flow on 1639 faces (78.0% area) of pressure-outlet 25.

  iter  continuity  x-velocity  y-velocity  z-velocity           k     epsilon     time/iter
    56  1.9617e-01  1.9245e-03  1.9116e-03  1.8908e-03  3.0194e-03  7.8631e-03  0:13:15  444

 Reversed flow on 4282 faces (98.2% area) of pressure-outlet 24.

 Reversed flow on 1642 faces (78.1% area) of pressure-outlet 25.
    57  1.9168e-01  1.8365e-03  1.8113e-03  1.7771e-03  2.8041e-03  7.3284e-03  0:13:32  443

 Reversed flow on 4258 faces (97.6% area) of pressure-outlet 24.

 Reversed flow on 1647 faces (78.3% area) of pressure-outlet 25.
    58  1.8588e-01  1.7478e-03  1.7208e-03  1.6671e-03  2.6328e-03  6.9037e-03  0:12:17  442

 Reversed flow on 4210 faces (96.6% area) of pressure-outlet 24.

 Reversed flow on 1647 faces (78.3% area) of pressure-outlet 25.
    59  1.7913e-01  1.6637e-03  1.6360e-03  1.5689e-03  2.5395e-03  6.5385e-03  0:12:44  441

 Reversed flow on 4199 faces (96.3% area) of pressure-outlet 24.

 Reversed flow on 1648 faces (78.3% area) of pressure-outlet 25.
    60  1.7259e-01  1.5801e-03  1.5600e-03  1.4855e-03  2.4419e-03  6.3800e-03  0:13:06  440

 Reversed flow on 4194 faces (96.2% area) of pressure-outlet 24.

 Reversed flow on 1644 faces (78.2% area) of pressure-outlet 25.
    61  1.6712e-01  1.5035e-03  1.4905e-03  1.4141e-03  2.3594e-03  6.1688e-03  0:13:23  439

 Reversed flow on 4188 faces (96.0% area) of pressure-outlet 24.

 Reversed flow on 1630 faces (77.6% area) of pressure-outlet 25.
    62  1.6211e-01  1.4394e-03  1.4326e-03  1.3538e-03  2.2549e-03  5.9728e-03  0:13:36  438

 Reversed flow on 4191 faces (96.0% area) of pressure-outlet 24.

 Reversed flow on 1623 faces (77.2% area) of pressure-outlet 25.
    63  1.5762e-01  1.3919e-03  1.3854e-03  1.3080e-03  2.2257e-03  5.6083e-03  0:13:46  437

 Reversed flow on 4179 faces (95.7% area) of pressure-outlet 24.

 Reversed flow on 1617 faces (77.0% area) of pressure-outlet 25.
    64  1.5437e-01  1.3715e-03  1.3542e-03  1.2771e-03  2.2044e-03  5.5900e-03  0:13:54  436

 Reversed flow on 4155 faces (95.1% area) of pressure-outlet 24.

 Reversed flow on 1609 faces (76.6% area) of pressure-outlet 25.
    65  1.5339e-01  1.3627e-03  1.3442e-03  1.2578e-03  2.2293e-03  5.5924e-03  0:14:00  435

 turbulent viscosity limited to viscosity ratio of 1.000000e+05 in 1 cells 

 Reversed flow on 4122 faces (94.3% area) of pressure-outlet 24.

 Reversed flow on 1601 faces (76.2% area) of pressure-outlet 25.
    66  1.5430e-01  1.3681e-03  1.3455e-03  1.2485e-03  2.2647e-03  5.9467e-03  0:12:37  434

 turbulent viscosity limited to viscosity ratio of 1.000000e+05 in 1 cells 

 Reversed flow on 4073 faces (93.0% area) of pressure-outlet 24.

 Reversed flow on 1597 faces (76.1% area) of pressure-outlet 25.

  iter  continuity  x-velocity  y-velocity  z-velocity           k     epsilon     time/iter
    67  1.5641e-01  1.3659e-03  1.3589e-03  1.2446e-03  2.2913e-03  5.9109e-03  0:12:57  433

 turbulent viscosity limited to viscosity ratio of 1.000000e+05 in 2 cells 

 Reversed flow on 4047 faces (92.1% area) of pressure-outlet 24.

 Reversed flow on 1590 faces (75.8% area) of pressure-outlet 25.
    68  1.5836e-01  1.3721e-03  1.3742e-03  1.2433e-03  2.3323e-03  6.2344e-03  0:13:13  432

 turbulent viscosity limited to viscosity ratio of 1.000000e+05 in 2 cells 

 Reversed flow on 4024 faces (91.3% area) of pressure-outlet 24.

 Reversed flow on 1590 faces (75.8% area) of pressure-outlet 25.
    69  1.5988e-01  1.3658e-03  1.3986e-03  1.2502e-03  2.3339e-03  6.3558e-03  0:13:26  431

 Reversed flow on 4025 faces (91.0% area) of pressure-outlet 24.

 Reversed flow on 1592 faces (75.9% area) of pressure-outlet 25.
    70  1.6147e-01  1.3800e-03  1.4164e-03  1.2634e-03  2.4058e-03  7.0065e-03  0:13:35  430

 Reversed flow on 4028 faces (90.7% area) of pressure-outlet 24.

 Reversed flow on 1591 faces (75.9% area) of pressure-outlet 25.
    71  1.6367e-01  1.3863e-03  1.4416e-03  1.2796e-03  2.3967e-03  7.0065e-03  0:13:42  429

 Reversed flow on 4039 faces (90.9% area) of pressure-outlet 24.

 Reversed flow on 1594 faces (76.0% area) of pressure-outlet 25.
    72  1.6551e-01  1.4010e-03  1.4506e-03  1.2958e-03  2.4743e-03  7.4502e-03  0:13:47  428

 Reversed flow on 4054 faces (91.2% area) of pressure-outlet 24.

 Reversed flow on 1595 faces (76.0% area) of pressure-outlet 25.
    73  1.6736e-01  1.3976e-03  1.4589e-03  1.3064e-03  2.3716e-03  6.9157e-03  0:13:51  427

 Reversed flow on 4065 faces (91.4% area) of pressure-outlet 24.

 Reversed flow on 1599 faces (76.2% area) of pressure-outlet 25.
    74  1.6861e-01  1.3984e-03  1.4417e-03  1.3075e-03  2.4278e-03  7.3079e-03  0:13:54  426

 turbulent viscosity limited to viscosity ratio of 1.000000e+05 in 1 cells 

 Reversed flow on 4084 faces (92.0% area) of pressure-outlet 24.

 Reversed flow on 1599 faces (76.3% area) of pressure-outlet 25.
    75  1.6906e-01  1.3875e-03  1.4263e-03  1.3047e-03  2.3033e-03  6.8021e-03  0:12:30  425

 turbulent viscosity limited to viscosity ratio of 1.000000e+05 in 1 cells 

 Reversed flow on 4108 faces (92.6% area) of pressure-outlet 24.

 Reversed flow on 1602 faces (76.4% area) of pressure-outlet 25.
    76  1.6866e-01  1.3845e-03  1.4000e-03  1.2956e-03  2.4086e-03  7.3535e-03  0:11:24  424

 turbulent viscosity limited to viscosity ratio of 1.000000e+05 in 3 cells 

 Reversed flow on 4129 faces (93.1% area) of pressure-outlet 24.

 Reversed flow on 1603 faces (76.5% area) of pressure-outlet 25.
    77  1.6762e-01  1.3798e-03  1.3838e-03  1.2860e-03  2.2795e-03  6.7960e-03  0:11:55  423

 turbulent viscosity limited to viscosity ratio of 1.000000e+05 in 26 cells 

 Reversed flow on 4138 faces (93.4% area) of pressure-outlet 24.

 Reversed flow on 1604 faces (76.5% area) of pressure-outlet 25.

  iter  continuity  x-velocity  y-velocity  z-velocity           k     epsilon     time/iter
    78  1.6639e-01  1.3816e-03  1.3677e-03  1.2793e-03  2.3917e-03  7.0376e-03  0:10:55  422

 turbulent viscosity limited to viscosity ratio of 1.000000e+05 in 8 cells 

 Reversed flow on 4155 faces (94.0% area) of pressure-outlet 24.

 Reversed flow on 1609 faces (76.7% area) of pressure-outlet 25.
    79  1.6466e-01  1.3880e-03  1.3622e-03  1.2754e-03  2.4069e-03  6.9023e-03  0:12:55  421

 Reversed flow on 4162 faces (94.2% area) of pressure-outlet 24.

 Reversed flow on 1607 faces (76.7% area) of pressure-outlet 25.
    80  1.6293e-01  1.3996e-03  1.3686e-03  1.2747e-03  2.4529e-03  7.2513e-03  0:11:43  420

 Reversed flow on 4176 faces (94.6% area) of pressure-outlet 24.

 Reversed flow on 1605 faces (76.6% area) of pressure-outlet 25.
    81  1.6133e-01  1.4229e-03  1.3760e-03  1.2776e-03  2.3183e-03  6.8382e-03  0:12:08  419

 Reversed flow on 4189 faces (95.0% area) of pressure-outlet 24.

 Reversed flow on 1604 faces (76.5% area) of pressure-outlet 25.
    82  1.6097e-01  1.4375e-03  1.3906e-03  1.2881e-03  2.3143e-03  6.4325e-03  0:11:05  418

 Reversed flow on 4206 faces (95.4% area) of pressure-outlet 24.

 Reversed flow on 1603 faces (76.5% area) of pressure-outlet 25.
    83  1.6070e-01  1.4740e-03  1.3956e-03  1.3028e-03  2.2991e-03  6.4672e-03  0:11:38  417

 Reversed flow on 4215 faces (95.7% area) of pressure-outlet 24.

 Reversed flow on 1601 faces (76.4% area) of pressure-outlet 25.
    84  1.6171e-01  1.5019e-03  1.4159e-03  1.3187e-03  2.2905e-03  6.3304e-03  0:12:03  416

 Reversed flow on 4220 faces (95.8% area) of pressure-outlet 24.

 Reversed flow on 1593 faces (76.0% area) of pressure-outlet 25.
    85  1.6293e-01  1.5402e-03  1.4204e-03  1.3278e-03  2.2611e-03  6.1865e-03  0:12:23  415

 Reversed flow on 4216 faces (95.8% area) of pressure-outlet 24.

 Reversed flow on 1591 faces (75.9% area) of pressure-outlet 25.
    86  1.6388e-01  1.5465e-03  1.4408e-03  1.3357e-03  2.1537e-03  5.5507e-03  0:11:16  414

 Reversed flow on 4222 faces (95.9% area) of pressure-outlet 24.

 Reversed flow on 1588 faces (75.8% area) of pressure-outlet 25.
    87  1.6415e-01  1.5541e-03  1.4393e-03  1.3320e-03  2.1655e-03  5.7895e-03  0:11:45  413

 turbulent viscosity limited to viscosity ratio of 1.000000e+05 in 1 cells 

 Reversed flow on 4225 faces (96.0% area) of pressure-outlet 24.

 Reversed flow on 1587 faces (75.7% area) of pressure-outlet 25.
    88  1.6353e-01  1.5285e-03  1.4492e-03  1.3223e-03  2.0835e-03  5.6371e-03  0:10:45  412

 turbulent viscosity limited to viscosity ratio of 1.000000e+05 in 5 cells 

 Reversed flow on 4222 faces (96.0% area) of pressure-outlet 24.

 Reversed flow on 1587 faces (75.7% area) of pressure-outlet 25.

  iter  continuity  x-velocity  y-velocity  z-velocity           k     epsilon     time/iter
    89  1.6254e-01  1.5167e-03  1.4422e-03  1.3133e-03  2.1475e-03  6.2599e-03  0:11:19  411

 turbulent viscosity limited to viscosity ratio of 1.000000e+05 in 16 cells 

 Reversed flow on 4242 faces (96.5% area) of pressure-outlet 24.

 Reversed flow on 1585 faces (75.7% area) of pressure-outlet 25.
    90  1.6085e-01  1.4851e-03  1.4430e-03  1.3075e-03  2.0606e-03  5.9054e-03  0:11:46  410

 turbulent viscosity limited to viscosity ratio of 1.000000e+05 in 6 cells 

 Reversed flow on 4259 faces (96.9% area) of pressure-outlet 24.

 Reversed flow on 1583 faces (75.6% area) of pressure-outlet 25.
    91  1.5886e-01  1.4622e-03  1.4321e-03  1.3014e-03  2.1489e-03  5.8895e-03  0:12:07  409

 turbulent viscosity limited to viscosity ratio of 1.000000e+05 in 11 cells 

 Reversed flow on 4278 faces (97.4% area) of pressure-outlet 24.

 Reversed flow on 1582 faces (75.5% area) of pressure-outlet 25.
    92  1.5641e-01  1.4317e-03  1.4302e-03  1.2930e-03  1.9797e-03  5.5366e-03  0:11:02  408

 turbulent viscosity limited to viscosity ratio of 1.000000e+05 in 20 cells 

 Reversed flow on 4285 faces (97.7% area) of pressure-outlet 24.

 Reversed flow on 1581 faces (75.5% area) of pressure-outlet 25.
    93  1.5395e-01  1.4118e-03  1.4192e-03  1.2879e-03  2.0192e-03  5.8247e-03  0:11:31  407

 Reversed flow on 4302 faces (98.2% area) of pressure-outlet 24.

 Reversed flow on 1582 faces (75.5% area) of pressure-outlet 25.
    94  1.5144e-01  1.3886e-03  1.4100e-03  1.2837e-03  2.0071e-03  5.9115e-03  0:10:33  406

 Reversed flow on 4333 faces (98.9% area) of pressure-outlet 24.

 Reversed flow on 1583 faces (75.5% area) of pressure-outlet 25.
    95  1.4926e-01  1.3702e-03  1.3940e-03  1.2793e-03  2.0467e-03  5.8522e-03  0:11:07  405

 Reversed flow on 4356 faces (99.4% area) of pressure-outlet 24.

 Reversed flow on 1583 faces (75.5% area) of pressure-outlet 25.
    96  1.4776e-01  1.3620e-03  1.3793e-03  1.2804e-03  2.0360e-03  5.8723e-03  0:11:34  404

 turbulent viscosity limited to viscosity ratio of 1.000000e+05 in 1 cells 

 Reversed flow on 4377 faces (99.9% area) of pressure-outlet 24.

 Reversed flow on 1584 faces (75.6% area) of pressure-outlet 25.
    97  1.4728e-01  1.3598e-03  1.3690e-03  1.2859e-03  2.1053e-03  6.1929e-03  0:11:55  403

 Reversed flow on 4372 faces (99.7% area) of pressure-outlet 24.

 Reversed flow on 1585 faces (75.6% area) of pressure-outlet 25.
    98  1.4744e-01  1.3581e-03  1.3570e-03  1.2896e-03  2.1528e-03  6.4899e-03  0:10:51  402

 turbulent viscosity limited to viscosity ratio of 1.000000e+05 in 1 cells 

 Reversed flow on 4356 faces (99.3% area) of pressure-outlet 24.

 Reversed flow on 1584 faces (75.6% area) of pressure-outlet 25.
    99  1.4822e-01  1.3472e-03  1.3498e-03  1.2950e-03  2.1503e-03  6.0997e-03  0:10:00  401

 Reversed flow on 4332 faces (98.6% area) of pressure-outlet 24.

 Reversed flow on 1581 faces (75.5% area) of pressure-outlet 25.

  iter  continuity  x-velocity  y-velocity  z-velocity           k     epsilon     time/iter
   100  1.4915e-01  1.3489e-03  1.3349e-03  1.2957e-03  2.1845e-03  6.2976e-03  0:10:38  400

 Reversed flow on 4313 faces (98.1% area) of pressure-outlet 24.

 Reversed flow on 1582 faces (75.5% area) of pressure-outlet 25.
   101  1.5060e-01  1.3466e-03  1.3301e-03  1.2983e-03  2.2020e-03  6.3156e-03  0:15:08  399

 turbulent viscosity limited to viscosity ratio of 1.000000e+05 in 3 cells 

 Reversed flow on 4294 faces (97.6% area) of pressure-outlet 24.

 Reversed flow on 1583 faces (75.5% area) of pressure-outlet 25.
   102  1.5262e-01  1.3467e-03  1.3205e-03  1.2982e-03  2.2719e-03  6.6919e-03  0:14:44  398

 turbulent viscosity limited to viscosity ratio of 1.000000e+05 in 1 cells 

 Reversed flow on 4298 faces (97.7% area) of pressure-outlet 24.

 Reversed flow on 1582 faces (75.5% area) of pressure-outlet 25.
   103  1.5530e-01  1.3421e-03  1.3218e-03  1.2998e-03  2.2484e-03  6.3985e-03  0:14:24  397

 turbulent viscosity limited to viscosity ratio of 1.000000e+05 in 2 cells 

 Reversed flow on 4298 faces (97.8% area) of pressure-outlet 24.

 Reversed flow on 1584 faces (75.6% area) of pressure-outlet 25.
   104  1.5795e-01  1.3479e-03  1.3201e-03  1.3018e-03  2.3078e-03  6.6106e-03  0:12:49  396

 turbulent viscosity limited to viscosity ratio of 1.000000e+05 in 6 cells 

 Reversed flow on 4304 faces (97.9% area) of pressure-outlet 24.

 Reversed flow on 1586 faces (75.6% area) of pressure-outlet 25.
   105  1.6141e-01  1.3568e-03  1.3341e-03  1.3086e-03  2.3132e-03  6.4367e-03  0:12:52  395

 turbulent viscosity limited to viscosity ratio of 1.000000e+05 in 4 cells 

 Reversed flow on 4309 faces (98.0% area) of pressure-outlet 24.

 Reversed flow on 1582 faces (75.5% area) of pressure-outlet 25.
   106  1.6452e-01  1.3775e-03  1.3456e-03  1.3224e-03  2.3831e-03  6.8211e-03  0:12:53  394

 turbulent viscosity limited to viscosity ratio of 1.000000e+05 in 5 cells 

 Reversed flow on 4335 faces (98.7% area) of pressure-outlet 24.

 Reversed flow on 1583 faces (75.5% area) of pressure-outlet 25.
   107  1.6713e-01  1.3918e-03  1.3594e-03  1.3410e-03  2.3427e-03  6.5992e-03  0:11:36  393

 turbulent viscosity limited to viscosity ratio of 1.000000e+05 in 5 cells 

 Reversed flow on 4358 faces (99.2% area) of pressure-outlet 24.

 Reversed flow on 1582 faces (75.5% area) of pressure-outlet 25.
   108  1.6920e-01  1.4095e-03  1.3732e-03  1.3598e-03  2.3673e-03  6.6258e-03  0:11:52  392

 turbulent viscosity limited to viscosity ratio of 1.000000e+05 in 11 cells 

 Reversed flow on 4385 faces (100.0% area) of pressure-outlet 24.

 Reversed flow on 1583 faces (75.5% area) of pressure-outlet 25.
   109  1.7111e-01  1.4244e-03  1.3893e-03  1.3727e-03  2.3413e-03  6.4282e-03  0:12:04  391

 turbulent viscosity limited to viscosity ratio of 1.000000e+05 in 4 cells 

 Reversed flow on 4385 faces (100.0% area) of pressure-outlet 24.

 Reversed flow on 1582 faces (75.5% area) of pressure-outlet 25.
   110  1.7233e-01  1.4390e-03  1.4052e-03  1.3818e-03  2.4006e-03  6.6007e-03  0:10:56  390

 turbulent viscosity limited to viscosity ratio of 1.000000e+05 in 3 cells 

 Reversed flow on 4385 faces (100.0% area) of pressure-outlet 24.

 Reversed flow on 1583 faces (75.5% area) of pressure-outlet 25.

  iter  continuity  x-velocity  y-velocity  z-velocity           k     epsilon     time/iter
   111  1.7284e-01  1.4593e-03  1.4256e-03  1.3930e-03  2.4109e-03  6.4549e-03  0:11:19  389

 turbulent viscosity limited to viscosity ratio of 1.000000e+05 in 1 cells 

 Reversed flow on 4385 faces (100.0% area) of pressure-outlet 24.

 Reversed flow on 1581 faces (75.5% area) of pressure-outlet 25.
   112  1.7424e-01  1.4926e-03  1.4558e-03  1.4145e-03  2.4741e-03  6.5739e-03  0:11:37  388

 turbulent viscosity limited to viscosity ratio of 1.000000e+05 in 3 cells 

 Reversed flow on 4385 faces (100.0% area) of pressure-outlet 24.

 Reversed flow on 1579 faces (75.4% area) of pressure-outlet 25.
   113  1.7589e-01  1.5343e-03  1.4943e-03  1.4416e-03  2.4978e-03  6.5099e-03  0:11:51  387

 turbulent viscosity limited to viscosity ratio of 1.000000e+05 in 2 cells 

 Reversed flow on 4385 faces (100.0% area) of pressure-outlet 24.

 Reversed flow on 1576 faces (75.2% area) of pressure-outlet 25.
   114  1.7834e-01  1.5741e-03  1.5279e-03  1.4683e-03  2.5369e-03  6.7252e-03  0:10:45  386

 turbulent viscosity limited to viscosity ratio of 1.000000e+05 in 5 cells 

 Reversed flow on 4385 faces (100.0% area) of pressure-outlet 24.

 Reversed flow on 1574 faces (75.1% area) of pressure-outlet 25.
   115  1.8129e-01  1.6075e-03  1.5517e-03  1.4906e-03  2.5471e-03  6.8202e-03  0:11:08  385

 Reversed flow on 4385 faces (100.0% area) of pressure-outlet 24.

 Reversed flow on 1571 faces (75.0% area) of pressure-outlet 25.
   116  1.8387e-01  1.6363e-03  1.5675e-03  1.5028e-03  2.5739e-03  7.0909e-03  0:11:27  384

 Reversed flow on 4385 faces (100.0% area) of pressure-outlet 24.

 Reversed flow on 1572 faces (75.0% area) of pressure-outlet 25.
   117  1.8591e-01  1.6545e-03  1.5793e-03  1.5048e-03  2.5613e-03  7.1447e-03  0:10:25  383

 Reversed flow on 4385 faces (100.0% area) of pressure-outlet 24.

 Reversed flow on 1572 faces (75.0% area) of pressure-outlet 25.
   118  1.8692e-01  1.6663e-03  1.5827e-03  1.5007e-03  2.5840e-03  7.3244e-03  0:10:51  382

 turbulent viscosity limited to viscosity ratio of 1.000000e+05 in 3 cells 

 Reversed flow on 4385 faces (100.0% area) of pressure-outlet 24.

 Reversed flow on 1574 faces (75.1% area) of pressure-outlet 25.
   119  1.8736e-01  1.6697e-03  1.5830e-03  1.4976e-03  2.5658e-03  7.3284e-03  0:12:28  381

 turbulent viscosity limited to viscosity ratio of 1.000000e+05 in 3 cells 

 Reversed flow on 4385 faces (100.0% area) of pressure-outlet 24.

 Reversed flow on 1574 faces (75.2% area) of pressure-outlet 25.
   120  1.8790e-01  1.6679e-03  1.5871e-03  1.4994e-03  2.6037e-03  7.5052e-03  0:11:13  380

 Reversed flow on 4385 faces (100.0% area) of pressure-outlet 24.

 Reversed flow on 1572 faces (75.1% area) of pressure-outlet 25.
   121  1.8844e-01  1.6685e-03  1.5943e-03  1.5061e-03  2.5898e-03  7.4116e-03  0:11:29  379

 Reversed flow on 4385 faces (100.0% area) of pressure-outlet 24.

 Reversed flow on 1573 faces (75.1% area) of pressure-outlet 25.

  iter  continuity  x-velocity  y-velocity  z-velocity           k     epsilon     time/iter
   122  1.8952e-01  1.6720e-03  1.6130e-03  1.5241e-03  2.6337e-03  7.4006e-03  0:11:41  378

 Reversed flow on 4385 faces (100.0% area) of pressure-outlet 24.

 Reversed flow on 1576 faces (75.3% area) of pressure-outlet 25.
   123  1.9119e-01  1.6882e-03  1.6353e-03  1.5536e-03  2.6489e-03  7.5012e-03  0:11:50  377

 Reversed flow on 4383 faces (100.0% area) of pressure-outlet 24.

 Reversed flow on 1578 faces (75.4% area) of pressure-outlet 25.
   124  1.9359e-01  1.7072e-03  1.6606e-03  1.5926e-03  2.7197e-03  7.6614e-03  0:11:57  376

 Reversed flow on 4345 faces (99.0% area) of pressure-outlet 24.

 Reversed flow on 1579 faces (75.4% area) of pressure-outlet 25.
   125  1.9632e-01  1.7330e-03  1.6855e-03  1.6335e-03  2.7268e-03  7.8116e-03  0:10:47  375

 Reversed flow on 4302 faces (97.9% area) of pressure-outlet 24.

 Reversed flow on 1579 faces (75.4% area) of pressure-outlet 25.
   126  1.9928e-01  1.7596e-03  1.7144e-03  1.6721e-03  2.7483e-03  7.6439e-03  0:11:06  374

 Reversed flow on 4278 faces (97.2% area) of pressure-outlet 24.

 Reversed flow on 1578 faces (75.4% area) of pressure-outlet 25.
   127  2.0126e-01  1.7872e-03  1.7361e-03  1.7038e-03  2.7547e-03  7.8013e-03  0:11:20  373

 Reversed flow on 4269 faces (97.0% area) of pressure-outlet 24.

 Reversed flow on 1580 faces (75.4% area) of pressure-outlet 25.
   128  2.0338e-01  1.8044e-03  1.7646e-03  1.7220e-03  2.7821e-03  7.4596e-03  0:10:17  372

 Reversed flow on 4265 faces (96.9% area) of pressure-outlet 24.

 Reversed flow on 1581 faces (75.5% area) of pressure-outlet 25.
   129  2.0505e-01  1.8162e-03  1.7776e-03  1.7245e-03  2.8138e-03  7.6503e-03  0:11:55  371

 Reversed flow on 4265 faces (97.0% area) of pressure-outlet 24.

 Reversed flow on 1582 faces (75.5% area) of pressure-outlet 25.
   130  2.0624e-01  1.8077e-03  1.7808e-03  1.7110e-03  2.7895e-03  7.2377e-03  0:10:44  370

 Reversed flow on 4271 faces (97.1% area) of pressure-outlet 24.

 Reversed flow on 1584 faces (75.6% area) of pressure-outlet 25.
   131  2.0725e-01  1.7910e-03  1.7624e-03  1.6805e-03  2.7664e-03  7.6218e-03  0:11:02  369

 turbulent viscosity limited to viscosity ratio of 1.000000e+05 in 1 cells 

 Reversed flow on 4272 faces (97.1% area) of pressure-outlet 24.

 Reversed flow on 1582 faces (75.5% area) of pressure-outlet 25.
   132  2.0667e-01  1.7487e-03  1.7346e-03  1.6459e-03  2.6834e-03  7.1740e-03  0:11:15  368

 Reversed flow on 4276 faces (97.2% area) of pressure-outlet 24.

 Reversed flow on 1577 faces (75.3% area) of pressure-outlet 25.

  iter  continuity  x-velocity  y-velocity  z-velocity           k     epsilon     time/iter
   133  2.0459e-01  1.7010e-03  1.6797e-03  1.6027e-03  2.5915e-03  7.1072e-03  0:11:25  367

 Reversed flow on 4283 faces (97.4% area) of pressure-outlet 24.

 Reversed flow on 1578 faces (75.3% area) of pressure-outlet 25.
   134  2.0165e-01  1.6401e-03  1.6236e-03  1.5515e-03  2.4632e-03  6.5775e-03  0:11:33  366

 Reversed flow on 4296 faces (97.8% area) of pressure-outlet 24.

 Reversed flow on 1578 faces (75.4% area) of pressure-outlet 25.
   135  1.9791e-01  1.5918e-03  1.5584e-03  1.4947e-03  2.4118e-03  6.9500e-03  0:10:26  365

 Reversed flow on 4303 faces (98.0% area) of pressure-outlet 24.

 Reversed flow on 1579 faces (75.4% area) of pressure-outlet 25.
   136  1.9431e-01  1.5312e-03  1.5054e-03  1.4439e-03  2.3315e-03  6.6022e-03  0:10:45  364

 Reversed flow on 4310 faces (98.3% area) of pressure-outlet 24.

 Reversed flow on 1578 faces (75.4% area) of pressure-outlet 25.
   137  1.9082e-01  1.4864e-03  1.4491e-03  1.3930e-03  2.2711e-03  6.2482e-03  0:09:47  363

 Reversed flow on 4333 faces (98.9% area) of pressure-outlet 24.

 Reversed flow on 1577 faces (75.3% area) of pressure-outlet 25.
   138  1.8793e-01  1.4380e-03  1.4101e-03  1.3483e-03  2.1782e-03  5.8391e-03  0:09:01  362

 Reversed flow on 4369 faces (99.7% area) of pressure-outlet 24.

 Reversed flow on 1576 faces (75.2% area) of pressure-outlet 25.
   139  1.8529e-01  1.4156e-03  1.3644e-03  1.3049e-03  2.1486e-03  6.1829e-03  0:09:36  361

 Reversed flow on 4383 faces (100.0% area) of pressure-outlet 24.

 Reversed flow on 1576 faces (75.3% area) of pressure-outlet 25.
   140  1.8296e-01  1.3836e-03  1.3389e-03  1.2684e-03  2.0741e-03  5.9282e-03  0:08:51  360

 Reversed flow on 4385 faces (100.0% area) of pressure-outlet 24.

 Reversed flow on 1575 faces (75.2% area) of pressure-outlet 25.
   141  1.8046e-01  1.3723e-03  1.3221e-03  1.2415e-03  2.0660e-03  5.8417e-03  0:09:28  359

 Reversed flow on 4385 faces (100.0% area) of pressure-outlet 24.

 Reversed flow on 1572 faces (75.1% area) of pressure-outlet 25.
   142  1.7925e-01  1.3623e-03  1.3264e-03  1.2280e-03  2.0317e-03  5.5683e-03  0:09:56  358

 Reversed flow on 4385 faces (100.0% area) of pressure-outlet 24.

 Reversed flow on 1570 faces (75.0% area) of pressure-outlet 25.
   143  1.7919e-01  1.3759e-03  1.3341e-03  1.2288e-03  2.0854e-03  6.0872e-03  0:09:07  357

 Reversed flow on 4385 faces (100.0% area) of pressure-outlet 24.

 Reversed flow on 1570 faces (75.0% area) of pressure-outlet 25.

  iter  continuity  x-velocity  y-velocity  z-velocity           k     epsilon     time/iter
   144  1.7844e-01  1.3808e-03  1.3560e-03  1.2434e-03  2.0648e-03  5.9011e-03  0:08:27  356

 Reversed flow on 4385 faces (100.0% area) of pressure-outlet 24.

 Reversed flow on 1569 faces (74.9% area) of pressure-outlet 25.
   145  1.7745e-01  1.4026e-03  1.3741e-03  1.2658e-03  2.1073e-03  6.0148e-03  0:07:56  355

 Reversed flow on 4385 faces (100.0% area) of pressure-outlet 24.

 Reversed flow on 1566 faces (74.8% area) of pressure-outlet 25.
   146  1.7716e-01  1.4162e-03  1.4039e-03  1.2890e-03  2.0729e-03  5.7541e-03  0:07:30  354

 Reversed flow on 4385 faces (100.0% area) of pressure-outlet 24.

 Reversed flow on 1566 faces (74.8% area) of pressure-outlet 25.
   147  1.7676e-01  1.4428e-03  1.4232e-03  1.3092e-03  2.1379e-03  6.3772e-03  0:08:21  353

 Reversed flow on 4385 faces (100.0% area) of pressure-outlet 24.

 Reversed flow on 1570 faces (75.0% area) of pressure-outlet 25.
   148  1.7708e-01  1.4528e-03  1.4464e-03  1.3221e-03  2.1155e-03  6.1247e-03  0:09:00  352

 Reversed flow on 4385 faces (100.0% area) of pressure-outlet 24.

 Reversed flow on 1569 faces (74.9% area) of pressure-outlet 25.
   149  1.7689e-01  1.4751e-03  1.4502e-03  1.3328e-03  2.1639e-03  6.4255e-03  0:08:21  351

 Reversed flow on 4385 faces (100.0% area) of pressure-outlet 24.

 Reversed flow on 1571 faces (75.0% area) of pressure-outlet 25.
   150  1.7684e-01  1.4783e-03  1.4526e-03  1.3425e-03  2.1527e-03  6.4649e-03  0:09:00  350

 Reversed flow on 4385 faces (100.0% area) of pressure-outlet 24.

 Reversed flow on 1571 faces (75.0% area) of pressure-outlet 25.
   151  1.7707e-01  1.4865e-03  1.4328e-03  1.3465e-03  2.2251e-03  7.0839e-03  0:09:30  349

 Reversed flow on 4385 faces (100.0% area) of pressure-outlet 24.

 Reversed flow on 1573 faces (75.1% area) of pressure-outlet 25.
   152  1.7737e-01  1.4740e-03  1.4168e-03  1.3399e-03  2.2233e-03  7.1374e-03  0:09:54  348

 Reversed flow on 4385 faces (100.0% area) of pressure-outlet 24.

 Reversed flow on 1576 faces (75.2% area) of pressure-outlet 25.
   153  1.7692e-01  1.4743e-03  1.3969e-03  1.3294e-03  2.2781e-03  7.5671e-03  0:09:03  347

 Reversed flow on 4385 faces (100.0% area) of pressure-outlet 24.

 Reversed flow on 1580 faces (75.4% area) of pressure-outlet 25.
   154  1.7637e-01  1.4638e-03  1.3932e-03  1.3220e-03  2.2726e-03  7.7046e-03  0:09:32  346

 Reversed flow on 4385 faces (100.0% area) of pressure-outlet 24.

 Reversed flow on 1580 faces (75.4% area) of pressure-outlet 25.

  iter  continuity  x-velocity  y-velocity  z-velocity           k     epsilon     time/iter
   155  1.7529e-01  1.4684e-03  1.3852e-03  1.3141e-03  2.2841e-03  7.8665e-03  0:09:54  345

 Reversed flow on 4385 faces (100.0% area) of pressure-outlet 24.

 Reversed flow on 1580 faces (75.4% area) of pressure-outlet 25.
   156  1.7399e-01  1.4686e-03  1.3896e-03  1.3100e-03  2.2493e-03  7.6969e-03  0:09:03  344

 Reversed flow on 4385 faces (100.0% area) of pressure-outlet 24.

 Reversed flow on 1578 faces (75.3% area) of pressure-outlet 25.
   157  1.7240e-01  1.4808e-03  1.3934e-03  1.3076e-03  2.2809e-03  7.7080e-03  0:09:30  343

 Reversed flow on 4385 faces (100.0% area) of pressure-outlet 24.

 Reversed flow on 1582 faces (75.5% area) of pressure-outlet 25.
   158  1.7107e-01  1.4925e-03  1.4117e-03  1.3137e-03  2.3098e-03  7.9572e-03  0:09:52  342

 Reversed flow on 4385 faces (100.0% area) of pressure-outlet 24.

 Reversed flow on 1581 faces (75.5% area) of pressure-outlet 25.
   159  1.7035e-01  1.5070e-03  1.4343e-03  1.3285e-03  2.3315e-03  7.9305e-03  0:10:08  341

 Reversed flow on 4385 faces (100.0% area) of pressure-outlet 24.

 Reversed flow on 1583 faces (75.5% area) of pressure-outlet 25.
   160  1.6970e-01  1.5115e-03  1.4565e-03  1.3530e-03  2.3942e-03  8.0164e-03  0:10:21  340

 Reversed flow on 4385 faces (100.0% area) of pressure-outlet 24.

 Reversed flow on 1579 faces (75.3% area) of pressure-outlet 25.
   161  1.6928e-01  1.5219e-03  1.4866e-03  1.3842e-03  2.5191e-03  8.2607e-03  0:10:31  339

 Reversed flow on 4385 faces (100.0% area) of pressure-outlet 24.

 Reversed flow on 1581 faces (75.4% area) of pressure-outlet 25.
   162  1.6910e-01  1.5401e-03  1.5262e-03  1.4289e-03  2.7376e-03  9.0744e-03  0:09:31  338

 Reversed flow on 4385 faces (100.0% area) of pressure-outlet 24.

 Reversed flow on 1580 faces (75.4% area) of pressure-outlet 25.
   163  1.6982e-01  1.5813e-03  1.5856e-03  1.4891e-03  3.0043e-03  9.9375e-03  0:08:43  337

 Reversed flow on 4385 faces (100.0% area) of pressure-outlet 24.

 Reversed flow on 1579 faces (75.3% area) of pressure-outlet 25.
   164  1.7216e-01  1.6500e-03  1.6649e-03  1.5617e-03  3.3274e-03  1.0999e-02  0:09:11  336

 Reversed flow on 4385 faces (100.0% area) of pressure-outlet 24.

 Reversed flow on 1580 faces (75.4% area) of pressure-outlet 25.
   165  1.7576e-01  1.7538e-03  1.7704e-03  1.6519e-03  3.6574e-03  1.1955e-02  0:09:34  335

 turbulent viscosity limited to viscosity ratio of 1.000000e+05 in 1 cells 

 Reversed flow on 4385 faces (100.0% area) of pressure-outlet 24.

 Reversed flow on 1581 faces (75.4% area) of pressure-outlet 25.

  iter  continuity  x-velocity  y-velocity  z-velocity           k     epsilon     time/iter
   166  1.8046e-01  1.8897e-03  1.8899e-03  1.7639e-03  3.9989e-03  1.2645e-02  0:09:51  334

 Reversed flow on 4385 faces (100.0% area) of pressure-outlet 24.

 Reversed flow on 1582 faces (75.5% area) of pressure-outlet 25.
   167  1.8561e-01  2.0170e-03  1.9790e-03  1.8723e-03  4.2751e-03  1.3311e-02  0:10:05  333

 Reversed flow on 4385 faces (100.0% area) of pressure-outlet 24.

 Reversed flow on 1582 faces (75.5% area) of pressure-outlet 25.
   168  1.9078e-01  2.1138e-03  2.0283e-03  1.9566e-03  4.3505e-03  1.3296e-02  0:10:15  332

 Reversed flow on 4356 faces (99.3% area) of pressure-outlet 24.

 Reversed flow on 1580 faces (75.4% area) of pressure-outlet 25.
   169  1.9518e-01  2.1617e-03  2.0455e-03  2.0017e-03  4.3584e-03  1.3458e-02  0:10:23  331

 turbulent viscosity limited to viscosity ratio of 1.000000e+05 in 9 cells 

 Reversed flow on 4294 faces (97.9% area) of pressure-outlet 24.

 Reversed flow on 1586 faces (75.7% area) of pressure-outlet 25.
   170  1.9917e-01  2.1693e-03  2.0415e-03  2.0270e-03  4.3827e-03  1.3429e-02  0:09:23  330

 turbulent viscosity limited to viscosity ratio of 1.000000e+05 in 42 cells 

 Reversed flow on 4251 faces (96.8% area) of pressure-outlet 24.

 Reversed flow on 1590 faces (75.8% area) of pressure-outlet 25.
   171  2.0322e-01  2.1567e-03  2.0373e-03  2.0321e-03  4.3879e-03  1.2929e-02  0:09:41  329

 turbulent viscosity limited to viscosity ratio of 1.000000e+05 in 70 cells 

 Reversed flow on 4229 faces (96.2% area) of pressure-outlet 24.

 Reversed flow on 1591 faces (75.9% area) of pressure-outlet 25.
   172  2.0646e-01  2.1125e-03  2.0336e-03  2.0295e-03  4.3107e-03  1.2003e-02  0:09:54  328

 turbulent viscosity limited to viscosity ratio of 1.000000e+05 in 6 cells 

 Reversed flow on 4222 faces (96.0% area) of pressure-outlet 24.

 Reversed flow on 1588 faces (75.7% area) of pressure-outlet 25.
   173  2.0771e-01  2.0567e-03  2.0049e-03  2.0019e-03  4.0701e-03  1.1072e-02  0:10:05  327

 turbulent viscosity limited to viscosity ratio of 1.000000e+05 in 2 cells 

 Reversed flow on 4221 faces (96.0% area) of pressure-outlet 24.

 Reversed flow on 1590 faces (75.8% area) of pressure-outlet 25.
   174  2.0627e-01  1.9853e-03  1.9530e-03  1.9403e-03  3.7308e-03  9.8901e-03  0:09:08  326

 Reversed flow on 4232 faces (96.2% area) of pressure-outlet 24.

 Reversed flow on 1584 faces (75.5% area) of pressure-outlet 25.
   175  2.0223e-01  1.9052e-03  1.8720e-03  1.8513e-03  3.4407e-03  9.0957e-03  0:08:22  325

 Reversed flow on 4244 faces (96.5% area) of pressure-outlet 24.

 Reversed flow on 1581 faces (75.4% area) of pressure-outlet 25.
   176  1.9698e-01  1.8211e-03  1.7972e-03  1.7619e-03  3.1864e-03  8.4042e-03  0:08:50  324

 Reversed flow on 4257 faces (96.8% area) of pressure-outlet 24.

 Reversed flow on 1581 faces (75.4% area) of pressure-outlet 25.

  iter  continuity  x-velocity  y-velocity  z-velocity           k     epsilon     time/iter
   177  1.9081e-01  1.7502e-03  1.7256e-03  1.6749e-03  3.0364e-03  8.1967e-03  0:09:12  323

 Reversed flow on 4275 faces (97.3% area) of pressure-outlet 24.

 Reversed flow on 1581 faces (75.4% area) of pressure-outlet 25.
   178  1.8474e-01  1.6999e-03  1.6752e-03  1.6048e-03  2.9594e-03  8.1442e-03  0:08:24  322

 Reversed flow on 4291 faces (97.7% area) of pressure-outlet 24.

 Reversed flow on 1583 faces (75.5% area) of pressure-outlet 25.
   179  1.7919e-01  1.6788e-03  1.6403e-03  1.5555e-03  2.9818e-03  8.2782e-03  0:08:51  321

 Reversed flow on 4305 faces (98.1% area) of pressure-outlet 24.

 Reversed flow on 1583 faces (75.5% area) of pressure-outlet 25.
   180  1.7528e-01  1.6758e-03  1.6284e-03  1.5307e-03  3.0225e-03  8.4466e-03  0:08:07  320

 Reversed flow on 4314 faces (98.3% area) of pressure-outlet 24.

 Reversed flow on 1579 faces (75.3% area) of pressure-outlet 25.
   181  1.7328e-01  1.6883e-03  1.6377e-03  1.5311e-03  3.0783e-03  8.7184e-03  0:07:32  319

 Reversed flow on 4328 faces (98.6% area) of pressure-outlet 24.

 Reversed flow on 1583 faces (75.5% area) of pressure-outlet 25.
   182  1.7294e-01  1.6983e-03  1.6625e-03  1.5539e-03  3.0730e-03  8.8139e-03  0:08:08  318

 Reversed flow on 4339 faces (98.9% area) of pressure-outlet 24.

 Reversed flow on 1585 faces (75.6% area) of pressure-outlet 25.
   183  1.7370e-01  1.7203e-03  1.6961e-03  1.5944e-03  3.0991e-03  9.0411e-03  0:07:33  317

 Reversed flow on 4349 faces (99.1% area) of pressure-outlet 24.

 Reversed flow on 1586 faces (75.7% area) of pressure-outlet 25.
   184  1.7601e-01  1.7500e-03  1.7381e-03  1.6437e-03  3.0526e-03  8.9479e-03  0:08:07  316

 Reversed flow on 4357 faces (99.3% area) of pressure-outlet 24.

 Reversed flow on 1584 faces (75.6% area) of pressure-outlet 25.
   185  1.7926e-01  1.7837e-03  1.7679e-03  1.6925e-03  3.0507e-03  9.0668e-03  0:08:35  315

[...]

 Reversed flow on 4359 faces (99.8% area) of pressure-outlet 24.

 Reversed flow on 1601 faces (76.3% area) of pressure-outlet 25.
   435  2.5359e-01  1.9133e-03  1.9615e-03  1.9459e-03  3.0722e-03  8.4149e-03  0:01:45   65

 Reversed flow on 4378 faces (99.9% area) of pressure-outlet 24.

 Reversed flow on 1600 faces (76.2% area) of pressure-outlet 25.
   436  2.5937e-01  1.9566e-03  1.9808e-03  1.9622e-03  3.0579e-03  8.5801e-03  0:01:49   64

 Reversed flow on 4385 faces (100.0% area) of pressure-outlet 24.

 Reversed flow on 1601 faces (76.3% area) of pressure-outlet 25.
   437  2.6338e-01  1.9657e-03  1.9840e-03  1.9564e-03  3.0093e-03  8.4579e-03  0:01:38   63

 Reversed flow on 4385 faces (100.0% area) of pressure-outlet 24.

 Reversed flow on 1602 faces (76.3% area) of pressure-outlet 25.
   438  2.6496e-01  1.9752e-03  1.9656e-03  1.9332e-03  2.9968e-03  8.7495e-03  0:01:42   62

 Reversed flow on 4385 faces (100.0% area) of pressure-outlet 24.

 Reversed flow on 1601 faces (76.3% area) of pressure-outlet 25.
   439  2.6460e-01  1.9611e-03  1.9442e-03  1.9015e-03  2.9619e-03  8.8681e-03  0:01:45   61

 Reversed flow on 4385 faces (100.0% area) of pressure-outlet 24.

 Reversed flow on 1604 faces (76.5% area) of pressure-outlet 25.
   440  2.6351e-01  1.9545e-03  1.9058e-03  1.8697e-03  2.9706e-03  9.2010e-03  0:01:46   60

 Reversed flow on 4385 faces (100.0% area) of pressure-outlet 24.

 Reversed flow on 1602 faces (76.3% area) of pressure-outlet 25.

  iter  continuity  x-velocity  y-velocity  z-velocity           k     epsilon     time/iter
   441  2.6149e-01  1.9370e-03  1.8704e-03  1.8515e-03  2.9464e-03  9.1129e-03  0:01:35   59

 Reversed flow on 4385 faces (100.0% area) of pressure-outlet 24.

 Reversed flow on 1599 faces (76.2% area) of pressure-outlet 25.
   442  2.5952e-01  1.9364e-03  1.8332e-03  1.8341e-03  2.9789e-03  9.5558e-03  0:01:38   58

 Reversed flow on 4385 faces (100.0% area) of pressure-outlet 24.

 Reversed flow on 1597 faces (76.1% area) of pressure-outlet 25.
   443  2.5731e-01  1.9326e-03  1.8160e-03  1.8223e-03  2.9732e-03  9.9023e-03  0:01:40   57

 Reversed flow on 4385 faces (100.0% area) of pressure-outlet 24.

 Reversed flow on 1595 faces (76.0% area) of pressure-outlet 25.
   444  2.5496e-01  1.9448e-03  1.7988e-03  1.8149e-03  2.9962e-03  1.0192e-02  0:01:41   56

 Reversed flow on 4385 faces (100.0% area) of pressure-outlet 24.

 Reversed flow on 1590 faces (75.8% area) of pressure-outlet 25.
   445  2.5294e-01  1.9522e-03  1.8046e-03  1.8203e-03  2.9748e-03  1.0165e-02  0:01:41   55

 Reversed flow on 4385 faces (100.0% area) of pressure-outlet 24.

 Reversed flow on 1590 faces (75.8% area) of pressure-outlet 25.
   446  2.5212e-01  1.9758e-03  1.8206e-03  1.8311e-03  2.9977e-03  1.0147e-02  0:01:41   54

 Reversed flow on 4385 faces (100.0% area) of pressure-outlet 24.

 Reversed flow on 1585 faces (75.6% area) of pressure-outlet 25.
   447  2.5216e-01  1.9920e-03  1.8548e-03  1.8457e-03  3.0632e-03  1.0456e-02  0:01:41   53

 Reversed flow on 4385 faces (100.0% area) of pressure-outlet 24.

 Reversed flow on 1581 faces (75.5% area) of pressure-outlet 25.
   448  2.5271e-01  2.0109e-03  1.8935e-03  1.8619e-03  3.1072e-03  1.0414e-02  0:01:40   52

 Reversed flow on 4307 faces (98.7% area) of pressure-outlet 24.

 Reversed flow on 1582 faces (75.5% area) of pressure-outlet 25.
   449  2.5199e-01  2.0278e-03  1.9421e-03  1.8792e-03  3.1956e-03  1.0544e-02  0:01:29   51

 Reversed flow on 4191 faces (96.0% area) of pressure-outlet 24.

 Reversed flow on 1582 faces (75.5% area) of pressure-outlet 25.
   450  2.5031e-01  2.0521e-03  1.9917e-03  1.9076e-03  3.3416e-03  1.0629e-02  0:01:29   50

 Reversed flow on 4107 faces (94.0% area) of pressure-outlet 24.

 Reversed flow on 1583 faces (75.6% area) of pressure-outlet 25.
   451  2.4904e-01  2.1004e-03  2.0558e-03  1.9483e-03  3.5427e-03  1.0651e-02  0:01:30   49

 Reversed flow on 4056 faces (92.7% area) of pressure-outlet 24.

 Reversed flow on 1583 faces (75.6% area) of pressure-outlet 25.

  iter  continuity  x-velocity  y-velocity  z-velocity           k     epsilon     time/iter
   452  2.4791e-01  2.1602e-03  2.1125e-03  1.9894e-03  3.7724e-03  1.1014e-02  0:01:20   48

 turbulent viscosity limited to viscosity ratio of 1.000000e+05 in 1 cells 

 Reversed flow on 4029 faces (92.1% area) of pressure-outlet 24.

 Reversed flow on 1583 faces (75.6% area) of pressure-outlet 25.
   453  2.4666e-01  2.2084e-03  2.1541e-03  2.0073e-03  3.8793e-03  1.1039e-02  0:01:21   47

 turbulent viscosity limited to viscosity ratio of 1.000000e+05 in 6 cells 

 Reversed flow on 4023 faces (91.9% area) of pressure-outlet 24.

 Reversed flow on 1587 faces (75.7% area) of pressure-outlet 25.
   454  2.4520e-01  2.2319e-03  2.1690e-03  2.0052e-03  3.9390e-03  1.0793e-02  0:01:22   46

 turbulent viscosity limited to viscosity ratio of 1.000000e+05 in 3 cells 

 Reversed flow on 4041 faces (92.2% area) of pressure-outlet 24.

 Reversed flow on 1591 faces (75.9% area) of pressure-outlet 25.
   455  2.4356e-01  2.2293e-03  2.1517e-03  1.9929e-03  3.9920e-03  1.0569e-02  0:01:13   45

 turbulent viscosity limited to viscosity ratio of 1.000000e+05 in 2 cells 

 Reversed flow on 4113 faces (93.3% area) of pressure-outlet 24.

 Reversed flow on 1592 faces (76.0% area) of pressure-outlet 25.
   456  2.4185e-01  2.1916e-03  2.1076e-03  1.9568e-03  3.8915e-03  1.0202e-02  0:01:15   44

 turbulent viscosity limited to viscosity ratio of 1.000000e+05 in 2 cells 

 Reversed flow on 4147 faces (94.1% area) of pressure-outlet 24.

 Reversed flow on 1593 faces (76.0% area) of pressure-outlet 25.
   457  2.3987e-01  2.1305e-03  2.0459e-03  1.9158e-03  3.7873e-03  1.0287e-02  0:01:16   43

 turbulent viscosity limited to viscosity ratio of 1.000000e+05 in 1 cells 

 Reversed flow on 4176 faces (94.8% area) of pressure-outlet 24.

 Reversed flow on 1593 faces (76.0% area) of pressure-outlet 25.
   458  2.3711e-01  2.0734e-03  1.9869e-03  1.8887e-03  3.6431e-03  1.0287e-02  0:01:16   42

 turbulent viscosity limited to viscosity ratio of 1.000000e+05 in 8 cells 

 Reversed flow on 4200 faces (95.3% area) of pressure-outlet 24.

 Reversed flow on 1593 faces (76.0% area) of pressure-outlet 25.
   459  2.3507e-01  2.0310e-03  1.9405e-03  1.8743e-03  3.5591e-03  1.0307e-02  0:01:16   41

 turbulent viscosity limited to viscosity ratio of 1.000000e+05 in 1 cells 

 Reversed flow on 4221 faces (95.7% area) of pressure-outlet 24.

 Reversed flow on 1593 faces (76.0% area) of pressure-outlet 25.
   460  2.3357e-01  2.0111e-03  1.9154e-03  1.8633e-03  3.5130e-03  9.5982e-03  0:01:15   40

 Reversed flow on 4242 faces (96.2% area) of pressure-outlet 24.

 Reversed flow on 1591 faces (75.9% area) of pressure-outlet 25.
   461  2.3322e-01  2.0194e-03  1.9167e-03  1.8672e-03  3.5238e-03  9.2330e-03  0:01:14   39

 Reversed flow on 4258 faces (96.6% area) of pressure-outlet 24.

 Reversed flow on 1587 faces (75.8% area) of pressure-outlet 25.
   462  2.3359e-01  2.0435e-03  1.9358e-03  1.8844e-03  3.5487e-03  9.3750e-03  0:01:13   38

 Reversed flow on 4278 faces (97.2% area) of pressure-outlet 24.

 Reversed flow on 1586 faces (75.7% area) of pressure-outlet 25.

  iter  continuity  x-velocity  y-velocity  z-velocity           k     epsilon     time/iter
   463  2.3419e-01  2.0561e-03  1.9665e-03  1.9082e-03  3.5309e-03  9.2468e-03  0:01:04   37

 Reversed flow on 4242 faces (96.2% area) of pressure-outlet 24.

 Reversed flow on 1584 faces (75.6% area) of pressure-outlet 25.
   464  2.3509e-01  2.0550e-03  1.9944e-03  1.9280e-03  3.4974e-03  9.0932e-03  0:00:57   36

 Reversed flow on 4231 faces (95.9% area) of pressure-outlet 24.

 Reversed flow on 1582 faces (75.5% area) of pressure-outlet 25.
   465  2.3530e-01  2.0412e-03  2.0261e-03  1.9499e-03  3.4516e-03  8.9119e-03  0:00:59   35

 Reversed flow on 4234 faces (96.1% area) of pressure-outlet 24.

 Reversed flow on 1578 faces (75.4% area) of pressure-outlet 25.
   466  2.3630e-01  2.0353e-03  2.0540e-03  1.9703e-03  3.4083e-03  9.0212e-03  0:00:59   34

 turbulent viscosity limited to viscosity ratio of 1.000000e+05 in 2 cells 

 Reversed flow on 4258 faces (96.7% area) of pressure-outlet 24.

 Reversed flow on 1575 faces (75.3% area) of pressure-outlet 25.
   467  2.3775e-01  2.0333e-03  2.0783e-03  1.9960e-03  3.3135e-03  8.6035e-03  0:00:59   33

 turbulent viscosity limited to viscosity ratio of 1.000000e+05 in 2 cells 

 Reversed flow on 4274 faces (97.1% area) of pressure-outlet 24.

 Reversed flow on 1575 faces (75.3% area) of pressure-outlet 25.
   468  2.3911e-01  2.0362e-03  2.0841e-03  2.0152e-03  3.2260e-03  8.4579e-03  0:00:59   32

 turbulent viscosity limited to viscosity ratio of 1.000000e+05 in 4 cells 

 Reversed flow on 4297 faces (97.7% area) of pressure-outlet 24.

 Reversed flow on 1574 faces (75.2% area) of pressure-outlet 25.
   469  2.4052e-01  2.0344e-03  2.0962e-03  2.0282e-03  3.1705e-03  8.2363e-03  0:00:52   31

 turbulent viscosity limited to viscosity ratio of 1.000000e+05 in 7 cells 

 Reversed flow on 4319 faces (98.3% area) of pressure-outlet 24.

 Reversed flow on 1573 faces (75.2% area) of pressure-outlet 25.
   470  2.4087e-01  2.0432e-03  2.0883e-03  2.0222e-03  3.1384e-03  8.4540e-03  0:00:52   30

 turbulent viscosity limited to viscosity ratio of 1.000000e+05 in 6 cells 

 Reversed flow on 4349 faces (99.0% area) of pressure-outlet 24.

 Reversed flow on 1575 faces (75.2% area) of pressure-outlet 25.
   471  2.4029e-01  2.0424e-03  2.0787e-03  2.0105e-03  3.0797e-03  7.9701e-03  0:00:52   29

 turbulent viscosity limited to viscosity ratio of 1.000000e+05 in 4 cells 

 Reversed flow on 4374 faces (99.7% area) of pressure-outlet 24.

 Reversed flow on 1576 faces (75.3% area) of pressure-outlet 25.
   472  2.3882e-01  2.0462e-03  2.0622e-03  1.9929e-03  2.9953e-03  7.8589e-03  0:00:46   28

 turbulent viscosity limited to viscosity ratio of 1.000000e+05 in 1 cells 

 Reversed flow on 4385 faces (100.0% area) of pressure-outlet 24.

 Reversed flow on 1577 faces (75.3% area) of pressure-outlet 25.
   473  2.3691e-01  2.0355e-03  2.0514e-03  1.9742e-03  2.9318e-03  7.4917e-03  0:00:51   27

 turbulent viscosity limited to viscosity ratio of 1.000000e+05 in 1 cells 

 Reversed flow on 4385 faces (100.0% area) of pressure-outlet 24.

 Reversed flow on 1574 faces (75.2% area) of pressure-outlet 25.

  iter  continuity  x-velocity  y-velocity  z-velocity           k     epsilon     time/iter
   474  2.3483e-01  2.0265e-03  2.0372e-03  1.9568e-03  2.9090e-03  7.7516e-03  0:00:50   26

 Reversed flow on 4385 faces (100.0% area) of pressure-outlet 24.

 Reversed flow on 1571 faces (75.0% area) of pressure-outlet 25.
   475  2.3340e-01  2.0113e-03  2.0255e-03  1.9466e-03  2.8909e-03  7.7567e-03  0:00:48   25

 Reversed flow on 4385 faces (100.0% area) of pressure-outlet 24.

 Reversed flow on 1568 faces (74.9% area) of pressure-outlet 25.
   476  2.3265e-01  2.0030e-03  2.0045e-03  1.9365e-03  2.8747e-03  8.1351e-03  0:00:47   24

 Reversed flow on 4385 faces (100.0% area) of pressure-outlet 24.

 Reversed flow on 1564 faces (74.7% area) of pressure-outlet 25.
   477  2.3196e-01  1.9866e-03  1.9910e-03  1.9251e-03  2.8028e-03  7.9332e-03  0:00:40   23

 Reversed flow on 4385 faces (100.0% area) of pressure-outlet 24.

 Reversed flow on 1562 faces (74.6% area) of pressure-outlet 25.
   478  2.3129e-01  1.9788e-03  1.9734e-03  1.9238e-03  2.7856e-03  8.0865e-03  0:00:40   22

 Reversed flow on 4385 faces (100.0% area) of pressure-outlet 24.

 Reversed flow on 1560 faces (74.5% area) of pressure-outlet 25.
   479  2.3127e-01  1.9680e-03  1.9673e-03  1.9281e-03  2.7555e-03  7.7744e-03  0:00:39   21

 Reversed flow on 4385 faces (100.0% area) of pressure-outlet 24.

 Reversed flow on 1556 faces (74.4% area) of pressure-outlet 25.
   480  2.3176e-01  1.9673e-03  1.9582e-03  1.9408e-03  2.7961e-03  8.0132e-03  0:00:34   20

 Reversed flow on 4385 faces (100.0% area) of pressure-outlet 24.

 Reversed flow on 1559 faces (74.5% area) of pressure-outlet 25.
   481  2.3236e-01  1.9622e-03  1.9720e-03  1.9576e-03  2.7900e-03  7.8909e-03  0:00:33   19

 Reversed flow on 4385 faces (100.0% area) of pressure-outlet 24.

 Reversed flow on 1557 faces (74.4% area) of pressure-outlet 25.
   482  2.3258e-01  1.9700e-03  1.9834e-03  1.9686e-03  2.8471e-03  8.1382e-03  0:00:29   18

 Reversed flow on 4385 faces (100.0% area) of pressure-outlet 24.

 Reversed flow on 1560 faces (74.6% area) of pressure-outlet 25.
   483  2.3298e-01  1.9752e-03  1.9943e-03  1.9779e-03  2.8670e-03  8.1844e-03  0:00:28   17

 Reversed flow on 4385 faces (100.0% area) of pressure-outlet 24.

 Reversed flow on 1562 faces (74.7% area) of pressure-outlet 25.
   484  2.3401e-01  1.9902e-03  1.9992e-03  1.9778e-03  2.9460e-03  8.5887e-03  0:00:28   16

 Reversed flow on 4385 faces (100.0% area) of pressure-outlet 24.

 Reversed flow on 1562 faces (74.7% area) of pressure-outlet 25.

  iter  continuity  x-velocity  y-velocity  z-velocity           k     epsilon     time/iter
   485  2.3533e-01  1.9982e-03  2.0032e-03  1.9773e-03  2.9433e-03  8.4269e-03  0:00:27   15

 Reversed flow on 4385 faces (100.0% area) of pressure-outlet 24.

 Reversed flow on 1566 faces (74.9% area) of pressure-outlet 25.
   486  2.3606e-01  2.0053e-03  1.9960e-03  1.9738e-03  2.9867e-03  8.6630e-03  0:00:23   14

 Reversed flow on 4385 faces (100.0% area) of pressure-outlet 24.

 Reversed flow on 1569 faces (75.0% area) of pressure-outlet 25.
   487  2.3681e-01  2.0016e-03  1.9911e-03  1.9646e-03  2.9754e-03  8.6188e-03  0:00:22   13

 Reversed flow on 4385 faces (100.0% area) of pressure-outlet 24.

 Reversed flow on 1570 faces (75.1% area) of pressure-outlet 25.
   488  2.3651e-01  1.9994e-03  1.9848e-03  1.9572e-03  3.0237e-03  9.0388e-03  0:00:21   12

 Reversed flow on 4385 faces (100.0% area) of pressure-outlet 24.

 Reversed flow on 1573 faces (75.2% area) of pressure-outlet 25.
   489  2.3616e-01  1.9948e-03  1.9860e-03  1.9541e-03  3.0509e-03  9.1431e-03  0:00:20   11

 turbulent viscosity limited to viscosity ratio of 1.000000e+05 in 1 cells 

 Reversed flow on 4385 faces (100.0% area) of pressure-outlet 24.

 Reversed flow on 1578 faces (75.5% area) of pressure-outlet 25.
   490  2.3606e-01  2.0056e-03  1.9889e-03  1.9579e-03  3.1290e-03  9.6698e-03  0:00:16   10

 turbulent viscosity limited to viscosity ratio of 1.000000e+05 in 1 cells 

 Reversed flow on 4385 faces (100.0% area) of pressure-outlet 24.

 Reversed flow on 1578 faces (75.4% area) of pressure-outlet 25.
   491  2.3650e-01  2.0273e-03  2.0006e-03  1.9675e-03  3.1450e-03  9.7169e-03  0:00:14    9

 turbulent viscosity limited to viscosity ratio of 1.000000e+05 in 10 cells 

 Reversed flow on 4385 faces (100.0% area) of pressure-outlet 24.

 Reversed flow on 1583 faces (75.6% area) of pressure-outlet 25.
   492  2.3620e-01  2.0608e-03  2.0138e-03  1.9765e-03  3.1967e-03  1.0044e-02  0:00:13    8

 turbulent viscosity limited to viscosity ratio of 1.000000e+05 in 8 cells 

 Reversed flow on 4385 faces (100.0% area) of pressure-outlet 24.

 Reversed flow on 1584 faces (75.7% area) of pressure-outlet 25.
   493  2.3523e-01  2.0836e-03  2.0278e-03  1.9862e-03  3.2401e-03  1.0382e-02  0:00:10    7

 turbulent viscosity limited to viscosity ratio of 1.000000e+05 in 6 cells 

 Reversed flow on 4385 faces (100.0% area) of pressure-outlet 24.

 Reversed flow on 1582 faces (75.5% area) of pressure-outlet 25.
   494  2.3303e-01  2.0991e-03  2.0389e-03  1.9913e-03  3.2642e-03  1.0565e-02  0:00:10    6

 turbulent viscosity limited to viscosity ratio of 1.000000e+05 in 1 cells 

 Reversed flow on 4385 faces (100.0% area) of pressure-outlet 24.

 Reversed flow on 1584 faces (75.6% area) of pressure-outlet 25.
   495  2.3024e-01  2.1024e-03  2.0499e-03  1.9873e-03  3.2714e-03  1.0312e-02  0:00:08    5

 turbulent viscosity limited to viscosity ratio of 1.000000e+05 in 1 cells 

 Reversed flow on 4385 faces (100.0% area) of pressure-outlet 24.

 Reversed flow on 1583 faces (75.6% area) of pressure-outlet 25.

  iter  continuity  x-velocity  y-velocity  z-velocity           k     epsilon     time/iter
   496  2.2653e-01  2.1025e-03  2.0654e-03  1.9875e-03  3.3324e-03  1.0069e-02  0:00:07    4

 turbulent viscosity limited to viscosity ratio of 1.000000e+05 in 1 cells 

 Reversed flow on 4385 faces (100.0% area) of pressure-outlet 24.

 Reversed flow on 1580 faces (75.4% area) of pressure-outlet 25.
   497  2.2310e-01  2.1110e-03  2.0899e-03  1.9969e-03  3.4475e-03  1.0371e-02  0:00:05    3

 Reversed flow on 4385 faces (100.0% area) of pressure-outlet 24.

 Reversed flow on 1580 faces (75.4% area) of pressure-outlet 25.
   498  2.2120e-01  2.1356e-03  2.1281e-03  2.0206e-03  3.5827e-03  1.0678e-02  0:00:03    2

 turbulent viscosity limited to viscosity ratio of 1.000000e+05 in 1 cells 

 Reversed flow on 4385 faces (100.0% area) of pressure-outlet 24.

 Reversed flow on 1579 faces (75.3% area) of pressure-outlet 25.
   499  2.2109e-01  2.1780e-03  2.1676e-03  2.0578e-03  3.6927e-03  1.1212e-02  0:00:02    1

 Reversed flow on 4385 faces (100.0% area) of pressure-outlet 24.

 Reversed flow on 1575 faces (75.2% area) of pressure-outlet 25.
   500  2.2245e-01  2.2349e-03  2.2225e-03  2.1082e-03  3.7833e-03  1.1412e-02  0:00:00    0

> ;/solve/set/time-step 0.01
;solve/set/data-sampling y 1 y y
;/solve/dual-time-iterate 5000 10

adjoint/                file/                   report/
define/                 mesh/                   solve/
display/                parallel/               surface/
exit                    plot/                   views/

> ; set save
;no .h5 format

adjoint/                file/                   report/
define/                 mesh/                   solve/
display/                parallel/               surface/
exit                    plot/                   views/

> /file/cff-files? n

> ;/file/autosave/root-name "Me_317"
/file/write-case-data "E:\LGF\Sim\task\0826_1\P_85\FluentData_M100_-4700_85.cas"
Writing "E:\LGF\Sim\task\0826_1\P_85\FluentData_M100_-4700_85.cas"...

    6990 mixed cells, zone 15, binary.
  565192 mixed cells, zone 16, binary.
  128494 mixed cells, zone 17, binary.
   99631 mixed cells, zone 18, binary.
  112217 mixed cells, zone 19, binary.
    6990 cell partition ids, zone 15, 100 partitions, binary.
  565192 cell partition ids, zone 16, 100 partitions, binary.
  128494 cell partition ids, zone 17, 100 partitions, binary.
   99631 cell partition ids, zone 18, 100 partitions, binary.
  112217 cell partition ids, zone 19, 100 partitions, binary.
    3768 mixed wall faces, zone  1, binary.
   34998 triangular wall faces, zone  2, binary.
    6023 triangular wall faces, zone  3, binary.
   11483 triangular wall faces, zone  4, binary.
    5640 triangular wall faces, zone  5, binary.
    2602 triangular interior faces, zone  6, binary.
     310 quadrilateral interior faces, zone  7, binary.
    2662 mixed interior faces, zone  8, binary.
    2776 mixed interior faces, zone  9, binary.
   18821 mixed interior faces, zone 10, binary.
 1189685 mixed interior faces, zone 11, binary.
  263371 mixed interior faces, zone 12, binary.
  203749 mixed interior faces, zone 13, binary.
  217848 triangular interior faces, zone 14, binary.
     637 triangular pressure-outlet faces, zone 22, binary.
     100 quadrilateral velocity-inlet faces, zone 23, binary.
    4385 mixed pressure-outlet faces, zone 24, binary.
    2646 mixed pressure-outlet faces, zone 25, binary.
    1906 triangular velocity-inlet faces, zone 26, binary.
    4293 triangular wall faces, zone 27, binary.
    4279 triangular wall faces, zone 28, binary.
  252813 nodes, binary.
  252813 node flags, binary.
Done.


Writing "E:\LGF\Sim\task\0826_1\P_85\FluentData_M100_-4700_85.dat"...

Done.



> ;/display/save-picture "E:\LGF\Sim\task\0826_1\P_85\FluentData_M100_-4700_85jpg"
/exit/c