
              Welcome to ANSYS Fluent 2020 R1

              Copyright 1987-2020 ANSYS, Inc. All Rights Reserved.
              Unauthorized use, distribution or duplication is prohibited.
              This product is subject to U.S. laws governing export and re-export.
              For full Legal Notice, see documentation.

Build Time: Dec  2 2019 14:15:26 EST  Build Id: 10114  
 
Host spawning Node 0 on machine "DESKTOP-8RUTNJQ" (win64).
WARNING: No cached password or password provided.
         use '-pass' or '-cache' to provide password
Host 0 -- ip 192.168.161.95 -- ranks 0 - 99

 host | 0
======|======
    0 : SHM

 Prot -  All Intra-node communication is: SHM


-------------------------------------------------------------------------------
ID    Hostname         Core     O.S.         PID     Vendor        
-------------------------------------------------------------------------------
n99   DESKTOP-8RUTNJQ  100/128  Windows-x64  61012   AMD EPYC 7702 
n98   DESKTOP-8RUTNJQ  99/128   Windows-x64  78604   AMD EPYC 7702 
n97   DESKTOP-8RUTNJQ  98/128   Windows-x64  77540   AMD EPYC 7702 
n96   DESKTOP-8RUTNJQ  97/128   Windows-x64  76796   AMD EPYC 7702 
n95   DESKTOP-8RUTNJQ  96/128   Windows-x64  75292   AMD EPYC 7702 
n94   DESKTOP-8RUTNJQ  95/128   Windows-x64  74240   AMD EPYC 7702 
n93   DESKTOP-8RUTNJQ  94/128   Windows-x64  72792   AMD EPYC 7702 
n92   DESKTOP-8RUTNJQ  93/128   Windows-x64  68652   AMD EPYC 7702 
n91   DESKTOP-8RUTNJQ  92/128   Windows-x64  49796   AMD EPYC 7702 
n90   DESKTOP-8RUTNJQ  91/128   Windows-x64  74792   AMD EPYC 7702 
n89   DESKTOP-8RUTNJQ  90/128   Windows-x64  76540   AMD EPYC 7702 
n88   DESKTOP-8RUTNJQ  89/128   Windows-x64  76528   AMD EPYC 7702 
n87   DESKTOP-8RUTNJQ  88/128   Windows-x64  78348   AMD EPYC 7702 
n86   DESKTOP-8RUTNJQ  87/128   Windows-x64  74712   AMD EPYC 7702 
n85   DESKTOP-8RUTNJQ  86/128   Windows-x64  196540  AMD EPYC 7702 
n84   DESKTOP-8RUTNJQ  85/128   Windows-x64  77684   AMD EPYC 7702 
n83   DESKTOP-8RUTNJQ  84/128   Windows-x64  75316   AMD EPYC 7702 
n82   DESKTOP-8RUTNJQ  83/128   Windows-x64  73556   AMD EPYC 7702 
n81   DESKTOP-8RUTNJQ  82/128   Windows-x64  65168   AMD EPYC 7702 
n80   DESKTOP-8RUTNJQ  81/128   Windows-x64  33536   AMD EPYC 7702 
-------------------------------------------------------------------------------
ID    Hostname         Core     O.S.         PID     Vendor        
-------------------------------------------------------------------------------
n79   DESKTOP-8RUTNJQ  80/128   Windows-x64  66304   AMD EPYC 7702 
n78   DESKTOP-8RUTNJQ  79/128   Windows-x64  73896   AMD EPYC 7702 
n77   DESKTOP-8RUTNJQ  78/128   Windows-x64  68464   AMD EPYC 7702 
n76   DESKTOP-8RUTNJQ  77/128   Windows-x64  71004   AMD EPYC 7702 
n75   DESKTOP-8RUTNJQ  76/128   Windows-x64  76916   AMD EPYC 7702 
n74   DESKTOP-8RUTNJQ  75/128   Windows-x64  199332  AMD EPYC 7702 
n73   DESKTOP-8RUTNJQ  74/128   Windows-x64  60920   AMD EPYC 7702 
n72   DESKTOP-8RUTNJQ  73/128   Windows-x64  77616   AMD EPYC 7702 
n71   DESKTOP-8RUTNJQ  72/128   Windows-x64  77060   AMD EPYC 7702 
n70   DESKTOP-8RUTNJQ  71/128   Windows-x64  76728   AMD EPYC 7702 
n69   DESKTOP-8RUTNJQ  70/128   Windows-x64  73432   AMD EPYC 7702 
n68   DESKTOP-8RUTNJQ  69/128   Windows-x64  75456   AMD EPYC 7702 
n67   DESKTOP-8RUTNJQ  68/128   Windows-x64  75844   AMD EPYC 7702 
n66   DESKTOP-8RUTNJQ  67/128   Windows-x64  73280   AMD EPYC 7702 
n65   DESKTOP-8RUTNJQ  66/128   Windows-x64  74704   AMD EPYC 7702 
n64   DESKTOP-8RUTNJQ  65/128   Windows-x64  78412   AMD EPYC 7702 
n63   DESKTOP-8RUTNJQ  64/128   Windows-x64  72984   AMD EPYC 7702 
n62   DESKTOP-8RUTNJQ  63/128   Windows-x64  76300   AMD EPYC 7702 
n61   DESKTOP-8RUTNJQ  62/128   Windows-x64  75332   AMD EPYC 7702 
n60   DESKTOP-8RUTNJQ  61/128   Windows-x64  69880   AMD EPYC 7702 
-------------------------------------------------------------------------------
ID    Hostname         Core     O.S.         PID     Vendor        
-------------------------------------------------------------------------------
n59   DESKTOP-8RUTNJQ  60/128   Windows-x64  73740   AMD EPYC 7702 
n58   DESKTOP-8RUTNJQ  59/128   Windows-x64  73356   AMD EPYC 7702 
n57   DESKTOP-8RUTNJQ  58/128   Windows-x64  78352   AMD EPYC 7702 
n56   DESKTOP-8RUTNJQ  57/128   Windows-x64  77472   AMD EPYC 7702 
n55   DESKTOP-8RUTNJQ  56/128   Windows-x64  78796   AMD EPYC 7702 
n54   DESKTOP-8RUTNJQ  55/128   Windows-x64  76712   AMD EPYC 7702 
n53   DESKTOP-8RUTNJQ  54/128   Windows-x64  75964   AMD EPYC 7702 
n52   DESKTOP-8RUTNJQ  53/128   Windows-x64  74412   AMD EPYC 7702 
n51   DESKTOP-8RUTNJQ  52/128   Windows-x64  76208   AMD EPYC 7702 
n50   DESKTOP-8RUTNJQ  51/128   Windows-x64  74328   AMD EPYC 7702 
n49   DESKTOP-8RUTNJQ  50/128   Windows-x64  75924   AMD EPYC 7702 
n48   DESKTOP-8RUTNJQ  49/128   Windows-x64  75156   AMD EPYC 7702 
n47   DESKTOP-8RUTNJQ  48/128   Windows-x64  77380   AMD EPYC 7702 
n46   DESKTOP-8RUTNJQ  47/128   Windows-x64  76828   AMD EPYC 7702 
n45   DESKTOP-8RUTNJQ  46/128   Windows-x64  71756   AMD EPYC 7702 
n44   DESKTOP-8RUTNJQ  45/128   Windows-x64  76484   AMD EPYC 7702 
n43   DESKTOP-8RUTNJQ  44/128   Windows-x64  190712  AMD EPYC 7702 
n42   DESKTOP-8RUTNJQ  43/128   Windows-x64  49024   AMD EPYC 7702 
n41   DESKTOP-8RUTNJQ  42/128   Windows-x64  64928   AMD EPYC 7702 
n40   DESKTOP-8RUTNJQ  41/128   Windows-x64  93372   AMD EPYC 7702 
-------------------------------------------------------------------------------
ID    Hostname         Core     O.S.         PID     Vendor        
-------------------------------------------------------------------------------
n39   DESKTOP-8RUTNJQ  40/128   Windows-x64  76140   AMD EPYC 7702 
n38   DESKTOP-8RUTNJQ  39/128   Windows-x64  75384   AMD EPYC 7702 
n37   DESKTOP-8RUTNJQ  38/128   Windows-x64  72736   AMD EPYC 7702 
n36   DESKTOP-8RUTNJQ  37/128   Windows-x64  71116   AMD EPYC 7702 
n35   DESKTOP-8RUTNJQ  36/128   Windows-x64  75004   AMD EPYC 7702 
n34   DESKTOP-8RUTNJQ  35/128   Windows-x64  73764   AMD EPYC 7702 
n33   DESKTOP-8RUTNJQ  34/128   Windows-x64  35740   AMD EPYC 7702 
n32   DESKTOP-8RUTNJQ  33/128   Windows-x64  26796   AMD EPYC 7702 
n31   DESKTOP-8RUTNJQ  32/128   Windows-x64  66192   AMD EPYC 7702 
n30   DESKTOP-8RUTNJQ  31/128   Windows-x64  73872   AMD EPYC 7702 
n29   DESKTOP-8RUTNJQ  30/128   Windows-x64  72752   AMD EPYC 7702 
n28   DESKTOP-8RUTNJQ  29/128   Windows-x64  72020   AMD EPYC 7702 
n27   DESKTOP-8RUTNJQ  28/128   Windows-x64  70988   AMD EPYC 7702 
n26   DESKTOP-8RUTNJQ  27/128   Windows-x64  67808   AMD EPYC 7702 
n25   DESKTOP-8RUTNJQ  26/128   Windows-x64  66356   AMD EPYC 7702 
n24   DESKTOP-8RUTNJQ  25/128   Windows-x64  59828   AMD EPYC 7702 
n23   DESKTOP-8RUTNJQ  24/128   Windows-x64  42612   AMD EPYC 7702 
n22   DESKTOP-8RUTNJQ  23/128   Windows-x64  71660   AMD EPYC 7702 
n21   DESKTOP-8RUTNJQ  22/128   Windows-x64  75040   AMD EPYC 7702 
n20   DESKTOP-8RUTNJQ  21/128   Windows-x64  57156   AMD EPYC 7702 
-------------------------------------------------------------------------------
ID    Hostname         Core     O.S.         PID     Vendor        
-------------------------------------------------------------------------------
n19   DESKTOP-8RUTNJQ  20/128   Windows-x64  71852   AMD EPYC 7702 
n18   DESKTOP-8RUTNJQ  19/128   Windows-x64  73304   AMD EPYC 7702 
n17   DESKTOP-8RUTNJQ  18/128   Windows-x64  12056   AMD EPYC 7702 
n16   DESKTOP-8RUTNJQ  17/128   Windows-x64  70336   AMD EPYC 7702 
n15   DESKTOP-8RUTNJQ  16/128   Windows-x64  71376   AMD EPYC 7702 
n14   DESKTOP-8RUTNJQ  15/128   Windows-x64  72592   AMD EPYC 7702 
n13   DESKTOP-8RUTNJQ  14/128   Windows-x64  73056   AMD EPYC 7702 
n12   DESKTOP-8RUTNJQ  13/128   Windows-x64  73792   AMD EPYC 7702 
n11   DESKTOP-8RUTNJQ  12/128   Windows-x64  64128   AMD EPYC 7702 
n10   DESKTOP-8RUTNJQ  11/128   Windows-x64  50824   AMD EPYC 7702 
n9    DESKTOP-8RUTNJQ  10/128   Windows-x64  53416   AMD EPYC 7702 
n8    DESKTOP-8RUTNJQ  9/128    Windows-x64  66868   AMD EPYC 7702 
n7    DESKTOP-8RUTNJQ  8/128    Windows-x64  199432  AMD EPYC 7702 
n6    DESKTOP-8RUTNJQ  7/128    Windows-x64  73112   AMD EPYC 7702 
n5    DESKTOP-8RUTNJQ  6/128    Windows-x64  70732   AMD EPYC 7702 
n4    DESKTOP-8RUTNJQ  5/128    Windows-x64  73516   AMD EPYC 7702 
n3    DESKTOP-8RUTNJQ  4/128    Windows-x64  72328   AMD EPYC 7702 
n2    DESKTOP-8RUTNJQ  3/128    Windows-x64  76588   AMD EPYC 7702 
n1    DESKTOP-8RUTNJQ  2/128    Windows-x64  75588   AMD EPYC 7702 
n0*   DESKTOP-8RUTNJQ  1/128    Windows-x64  73492   AMD EPYC 7702 
host  DESKTOP-8RUTNJQ           Windows-x64  70456   AMD EPYC 7702 

MPI Option Selected: ibmmpi
Selected system interconnect: default
-------------------------------------------------------------------------------



Cleanup script file is E:\LGF\Sim\Script\\cleanup-fluent-DESKTOP-8RUTNJQ-74384.bat

Reading journal file E:\LGF\Sim\task\0826_1\P_85\J_M100_85_-2900.jou...

> ;Read case
/file/read-case E:\LGF\Sim\basic_Mesh\Model_100.msh

65: Affinity not set!

75: Affinity not set!

13: Affinity not set!

29: Affinity not set!

61: Affinity not set!

71: Affinity not set!

1: Affinity not set!

9: Affinity not set!

17: Affinity not set!

21: Affinity not set!

31: Affinity not set!

43: Affinity not set!

45: Affinity not set!

49: Affinity not set!

63: Affinity not set!

73: Affinity not set!

85: Affinity not set!

87: Affinity not set!

91: Affinity not set!

97: Affinity not set!

8: Affinity not set!

25: Affinity not set!

41: Affinity not set!

42: Affinity not set!

62: Affinity not set!

68: Affinity not set!

93: Affinity not set!

59: Affinity not set!

95: Affinity not set!

3: Affinity not set!

5: Affinity not set!

7: Affinity not set!

10: Affinity not set!

11: Affinity not set!

18: Affinity not set!

20: Affinity not set!

26: Affinity not set!

27: Affinity not set!

30: Affinity not set!

38: Affinity not set!

39: Affinity not set!

60: Affinity not set!

67: Affinity not set!

72: Affinity not set!

78: Affinity not set!

82: Affinity not set!

83: Affinity not set!

99: Affinity not set!

0: Affinity not set!

15: Affinity not set!

16: Affinity not set!

19: Affinity not set!

22: Affinity not set!

23: Affinity not set!

33: Affinity not set!

37: Affinity not set!

47: Affinity not set!

50: Affinity not set!

51: Affinity not set!

52: Affinity not set!

53: Affinity not set!

55: Affinity not set!

56: Affinity not set!

57: Affinity not set!

69: Affinity not set!

77: Affinity not set!

79: Affinity not set!

81: Affinity not set!

84: Affinity not set!

89: Affinity not set!

90: Affinity not set!

92: Affinity not set!

94: Affinity not set!

Reading "E:\LGF\Sim\basic_Mesh\Model_100.msh"...

Buffering for file scan...

  209972 nodes, binary.
   42841 nodes, binary.
    3768 mixed wall faces, zone  1, binary.
   34998 triangular wall faces, zone  2, binary.
    6023 triangular wall faces, zone  3, binary.
   11483 triangular wall faces, zone  4, binary.
    5640 triangular wall faces, zone  5, binary.
    2602 triangular interior faces, zone  6, binary.
     310 quadrilateral interior faces, zone  7, binary.
    2662 mixed interior faces, zone  8, binary.
    2776 mixed interior faces, zone  9, binary.
   18821 mixed interior faces, zone 10, binary.
 1189685 mixed interior faces, zone 11, binary.
  263371 mixed interior faces, zone 12, binary.
  203749 mixed interior faces, zone 13, binary.
  217848 triangular interior faces, zone 14, binary.
     637 triangular wall faces, zone 22, binary.
     100 quadrilateral wall faces, zone 23, binary.
    4385 mixed wall faces, zone 24, binary.
    2646 mixed wall faces, zone 25, binary.
    1906 triangular wall faces, zone 26, binary.
    4293 triangular wall faces, zone 27, binary.
    4279 triangular wall faces, zone 28, binary.
    6990 mixed cells, zone 15, binary.
  565192 mixed cells, zone 16, binary.
  128494 mixed cells, zone 17, binary.
   99631 mixed cells, zone 18, binary.
  112217 mixed cells, zone 19, binary.

Building...
     mesh
	auto partitioning mesh by Metis (fast),
	distributing mesh
		parts..................................................,
		faces..................................................,
		nodes..................................................,
		cells..................................................,
        bandwidth reduction using Reverse Cuthill-McKee: 9508/523 = 18.1797
     materials,
     interface,
     domains,
     zones,
	wall_tx_xi
	wall_xi_tx
	i2
	p2
	p1
	i1
	o1
	towparts-xi_zhui
	towparts-tc_tc
	towparts-tx_tx
	towparts-block_block
	towparts-xi_huan
	interior-towparts-xi_zhui
	interior-towparts-tc_tc
	interior-towparts-tx_tx
	interior-towparts-block_block
	interior-towparts-xi_huan
	interior-towparts-block_block-towparts-tc_tc
	interior-towparts-block_block-towparts-tx_tx
	interior-towparts-xi_huan-towparts-xi_zhui
	interior-towparts-block_block-towparts-xi_zhui
	wall-towparts-xi_zhui
	wall-towparts-tc_tc
	wall-towparts-tx_tx
	wall-towparts-block_block
	wall-towparts-xi_huan
     parallel,
Done.

> 
adjoint/                file/                   report/
define/                 mesh/                   solve/
display/                parallel/               surface/
exit                    plot/                   views/

> ; set save
;;/file/auto-save/data-frequency 2000
;;/file/auto-save/case-frequency each-time
;;/file/autosave/root-name "30du.msh.gz"

adjoint/                file/                   report/
define/                 mesh/                   solve/
display/                parallel/               surface/
exit                    plot/                   views/

> ;delete mesh interface
;/define/mesh-interface/delete contact_region

adjoint/                file/                   report/
define/                 mesh/                   solve/
display/                parallel/               surface/
exit                    plot/                   views/

> ;/define/operating-conditions/gravity/ y 0 -9.8 6

adjoint/                file/                   report/
define/                 mesh/                   solve/
display/                parallel/               surface/
exit                    plot/                   views/

> ;scale
;;/mesh/scale 0.125 0.125 0.125

adjoint/                file/                   report/
define/                 mesh/                   solve/
display/                parallel/               surface/
exit                    plot/                   views/

> ;general

adjoint/                file/                   report/
define/                 mesh/                   solve/
display/                parallel/               surface/
exit                    plot/                   views/

> /define/operating-conditions? invalid command [operating-conditions?]
y 0.0 -9.8 0.0

> 
adjoint/                file/                   report/
define/                 mesh/                   solve/
display/                parallel/               surface/
exit                    plot/                   views/

> /define/models steady? Steady solution model is already enabled.
y
invalid command [y]

> ;/define/models unsteady-1st-order? y

adjoint/                file/                   report/
define/                 mesh/                   solve/
display/                parallel/               surface/
exit                    plot/                   views/

> 
adjoint/                file/                   report/
define/                 mesh/                   solve/
display/                parallel/               surface/
exit                    plot/                   views/

> ;define viscous model

adjoint/                file/                   report/
define/                 mesh/                   solve/
display/                parallel/               surface/
exit                    plot/                   views/

> /define/models/viscous/ke-rng? y   ;;swirl?
/define/models/viscous/rng-swirl-model? yes

> 
adjoint/                file/                   report/
define/                 mesh/                   solve/
display/                parallel/               surface/
exit                    plot/                   views/

> 
adjoint/                file/                   report/
define/                 mesh/                   solve/
display/                parallel/               surface/
exit                    plot/                   views/

> ;/define/models/viscous/ke-rng-swirl-model? y
;/define/models/viscous/ke-rng/rng-swirl-model? y

adjoint/                file/                   report/
define/                 mesh/                   solve/
display/                parallel/               surface/
exit                    plot/                   views/

> 
adjoint/                file/                   report/
define/                 mesh/                   solve/
display/                parallel/               surface/
exit                    plot/                   views/

> ;/define/models/viscous/ke-realizable? y            

adjoint/                file/                   report/
define/                 mesh/                   solve/
display/                parallel/               surface/
exit                    plot/                   views/

> 
adjoint/                file/                   report/
define/                 mesh/                   solve/
display/                parallel/               surface/
exit                    plot/                   views/

> ; modify boundary-condition types

adjoint/                file/                   report/
define/                 mesh/                   solve/
display/                parallel/               surface/
exit                    plot/                   views/

> ;/define/boundary-conditions/zone-type contact_region-src wall
;/define/boundary-conditions/zone-type contact_region-trg wall
/define/boundary-conditions/zone-type i1 velocity-inlet

> /define/boundary-conditions/zone-type i2 velocity-inlet

> 
adjoint/                file/                   report/
define/                 mesh/                   solve/
display/                parallel/               surface/
exit                    plot/                   views/

> /define/boundary-conditions/zone-type o1 pressure-outlet

> /define/boundary-conditions/zone-type p1 pressure-outlet

> /define/boundary-conditions/zone-type p2 pressure-outlet

> 
adjoint/                file/                   report/
define/                 mesh/                   solve/
display/                parallel/               surface/
exit                    plot/                   views/

> ;set inlet boundary-conditions
/define/boundary-conditions/velocity-inlet (i2 i1)
i2  n n y y n 10 n 0 n n y 5 10

> /define/boundary-conditions/velocity-inlet (i2 i1)
i1  n n y y n 85 n 0 n n y 5 10

> /define/boundary-conditions/pressure-outlet (p2 p1 o1)
o1  y n -2900 n y n n y 5 10 y n n n

> /define/boundary-conditions/pressure-outlet (p2 p1 o1)
p1  y n 0 n y n n y 5 10 y n n n 

> /define/boundary-conditions/pressure-outlet (p2 p1 o1)
p2  y n 0 n y n n y 5 10 y n n n 

> 
adjoint/                file/                   report/
define/                 mesh/                   solve/
display/                parallel/               surface/
exit                    plot/                   views/

> ;;;;n y y n 0 y n 51.96 n 30 n 0 y n 1 n 1
;/define/boundary-conditions/copy-bc inlet front ()
;/define/boundary-conditions/wall lj y motion-bc-moving n n n n 11.11 1 0 0 n n 0 n 0.5

adjoint/                file/                   report/
define/                 mesh/                   solve/
display/                parallel/               surface/
exit                    plot/                   views/

> ; set solution controls
;/solve/set/p-v-coupling 21
;20: SIMPLE
;21: SIMPLEC
;22: PISO
;24: coupled
;/solve/set/under-relaxation pressure 0.5
;/solve/set/under-relaxation density 0.8
;/solve/set/under-relaxation body-force  0.8
;/solve/set/under-relaxation mom 0.5
;/solve/set/under-relaxation turb-viscosity 0.6
;/solve/set/under-relaxation k 0.6
;/solve/set/under-relaxation epsilon 0.6
;/solve/set/under-relaxation body-force 0.8 turb-viscosity 0.8 density 0.8
;/solve/set/discretization-scheme pressure 10 mom 1 k 1 epsilon 1

adjoint/                file/                   report/
define/                 mesh/                   solve/
display/                parallel/               surface/
exit                    plot/                   views/

> ;set pressure
;10:standard
;11:linear
;12:second order
;13:body force weighted
;14:presto!

adjoint/                file/                   report/
define/                 mesh/                   solve/
display/                parallel/               surface/
exit                    plot/                   views/

> ;set mom
;0:firdst order upwind
;1:second order upwind
;2:power law
;4:quick
;6:third-order muscl

adjoint/                file/                   report/
define/                 mesh/                   solve/
display/                parallel/               surface/
exit                    plot/                   views/

> ;set k
;0:firdst order upwind
;1:second order upwind
;2:power law
;4:quick
;6:third-order muscl

adjoint/                file/                   report/
define/                 mesh/                   solve/
display/                parallel/               surface/
exit                    plot/                   views/

> ;set epdst order upwind
;1:second order upwind
;2:power law
;4:silon
;0:firquick
;6:third-order muscl
;;;;;;;;;;;;;;;;;;;;;;;;;;;;;;;
;;;;;;;;;;;;;;;;;;;;;;;;;;;;;;set monitor point line surface
;;;;;;;;;;;;;;;;;;;;;;;;;;;;;;
/surface/point-surface/ cirPoint1 1.8 2 7

> /surface/point-surface/ cirPoint2 1.5 2 7

> /surface/point-surface/ cirPoint3 1 2 7

> /surface/point-surface/ cirPoint4 0 2 7

> /surface/point-surface/ cirPoint1_synYZ -1.8 2 7

> /surface/point-surface/ cirPoint2_synYZ -1.5 2 7

> /surface/point-surface/ cirPoint3_synYZ -1 2 7

> /surface/point-surface/ cirPoint1_synO -1.8 -2 7

> /surface/point-surface/ cirPoint2_synO -1.5 -2 7

> /surface/point-surface/ cirPoint3_synO -1 -2 7

> 
adjoint/                file/                   report/
define/                 mesh/                   solve/
display/                parallel/               surface/
exit                    plot/                   views/

> /surface/line-surface/ line_1 0 0 2 0 0 7

> 
adjoint/                file/                   report/
define/                 mesh/                   solve/
display/                parallel/               surface/
exit                    plot/                   views/

> /surface/line-surface/ line_2 1 2 2 1 2 7

> /surface/line-surface/ line_2_synYZ -1 2 2 -1 2 7

> 
adjoint/                file/                   report/
define/                 mesh/                   solve/
display/                parallel/               surface/
exit                    plot/                   views/

> /surface/line-surface/ line_3 1.5 2 2 1.5 2 7

> /surface/line-surface/ line_3_synYZ -1.5 2 2 -1.5 2 7

> 
adjoint/                file/                   report/
define/                 mesh/                   solve/
display/                parallel/               surface/
exit                    plot/                   views/

> 
adjoint/                file/                   report/
define/                 mesh/                   solve/
display/                parallel/               surface/
exit                    plot/                   views/

> 
adjoint/                file/                   report/
define/                 mesh/                   solve/
display/                parallel/               surface/
exit                    plot/                   views/

> 
adjoint/                file/                   report/
define/                 mesh/                   solve/
display/                parallel/               surface/
exit                    plot/                   views/

> 
adjoint/                file/                   report/
define/                 mesh/                   solve/
display/                parallel/               surface/
exit                    plot/                   views/

> /surface/plane-slice/ YuanPian_0_0_3 0 0 1 3

> /surface/plane-slice/ YuanPian_0_0_4 0 0 1 4

> /surface/plane-slice/ YuanPian_0_0_5 0 0 1 5

> /surface/plane-slice/ YuanPian_0_0_6 0 0 1 6

> /surface/plane-slice/ YuanPian_0_0_7 0 0 1 7

> 
adjoint/                file/                   report/
define/                 mesh/                   solve/
display/                parallel/               surface/
exit                    plot/                   views/

> /surface/transform-surface/ 10 ()
Center Of Rotation
 0 0 0 
Angle of Rotation
0 0 0 
Translation Distance
0 0 0 0 xiKou 

> 
adjoint/                file/                   report/
define/                 mesh/                   solve/
display/                parallel/               surface/
exit                    plot/                   views/

> 
adjoint/                file/                   report/
define/                 mesh/                   solve/
display/                parallel/               surface/
exit                    plot/                   views/

> 
adjoint/                file/                   report/
define/                 mesh/                   solve/
display/                parallel/               surface/
exit                    plot/                   views/

> 
adjoint/                file/                   report/
define/                 mesh/                   solve/
display/                parallel/               surface/
exit                    plot/                   views/

> ;/solve/monitors/surface/set-monitor miao_V_huan_2 ? velocity-magnitude miao31 miao32 miao33 miao34 miao35 miao36   n n y miao_V_huan_2 100

adjoint/                file/                   report/
define/                 mesh/                   solve/
display/                parallel/               surface/
exit                    plot/                   views/

> 
adjoint/                file/                   report/
define/                 mesh/                   solve/
display/                parallel/               surface/
exit                    plot/                   views/

> /solve/monitors/surface/set-monitor cirPoint1  "Sum" velocity-magnitude cirPoint1 () n n y E:\LGF\Sim\task\0826_1\P_85\txtData\cirPoint1_-2900.txt 100
Information: Converting monitor cirpoint1 to report definition.

> /solve/monitors/surface/set-monitor cirPoint2  "Sum" velocity-magnitude cirPoint2 () n n y E:\LGF\Sim\task\0826_1\P_85\txtData\cirPoint2_-2900.txt 100
Information: Converting monitor cirpoint2 to report definition.

> /solve/monitors/surface/set-monitor cirPoint3  "Sum" velocity-magnitude cirPoint3 () n n y E:\LGF\Sim\task\0826_1\P_85\txtData\cirPoint3_-2900.txt 100
Information: Converting monitor cirpoint3 to report definition.

> /solve/monitors/surface/set-monitor cirPoint1-2  "Sum" velocity-magnitude cirPoint1 cirPoint2 () n n y E:\LGF\Sim\task\0826_1\P_85\txtData\cirPoint1-2_-2900.txt 100
Information: Converting monitor cirpoint1-2 to report definition.

> 
adjoint/                file/                   report/
define/                 mesh/                   solve/
display/                parallel/               surface/
exit                    plot/                   views/

> /solve/monitors/surface/set-monitor line_1   "Facet Average" velocity-magnitude line_1 () n n y E:\LGF\Sim\task\0826_1\P_85\txtData\line_1_-2900.txt 100
Information: Converting monitor line_1 to report definition.

> /solve/monitors/surface/set-monitor line_2   "Facet Average" velocity-magnitude line_2 () n n y E:\LGF\Sim\task\0826_1\P_85\txtData\line_2_-2900.txt 100
Information: Converting monitor line_2 to report definition.

> 
adjoint/                file/                   report/
define/                 mesh/                   solve/
display/                parallel/               surface/
exit                    plot/                   views/

> /solve/monitors/surface/set-monitor YuanPian_0_0_5   "Facet Average" velocity-magnitude YuanPian_0_0_5 () n n y E:\LGF\Sim\task\0826_1\P_85\txtData\YuanPian_0_0_5_-2900.txt 100
Information: Converting monitor yuanpian_0_0_5 to report definition.

> 
adjoint/                file/                   report/
define/                 mesh/                   solve/
display/                parallel/               surface/
exit                    plot/                   views/

> /solve/monitors/surface/set-monitor xiKou   "Facet Average" velocity-magnitude xiKou () n n y E:\LGF\Sim\task\0826_1\P_85\txtData\xiKou_-2900.txt 100
Information: Converting monitor xikou to report definition.

> 
adjoint/                file/                   report/
define/                 mesh/                   solve/
display/                parallel/               surface/
exit                    plot/                   views/

> ;/solve/monitors/surface/set-monitor miao_V_huan_4  "Sum" velocity-magnitude miao37 () n n y E:\LGF\Sim\task\0826_1\P_85\txtData\miao_V_huan_4_-2900.txt 100

adjoint/                file/                   report/
define/                 mesh/                   solve/
display/                parallel/               surface/
exit                    plot/                   views/

> ;set monitor residuals
/solve/monitors/residual/convergence-criteria 0.000001 0.000001 0.000001 0.000001 0.000001 0.000001

> 
adjoint/                file/                   report/
define/                 mesh/                   solve/
display/                parallel/               surface/
exit                    plot/                   views/

> ;set force monitors
;compile C
;/define/user-defined/compiled-functions/compile libudf yes FandMmonitor.c "" "" 
; load C
;/define/user-defined/compiled-functions/load libudf
;;    set hook
;/define/user-defined/function-hooks/execute-at-end "force_and_moment_print::libudf" "" 

adjoint/                file/                   report/
define/                 mesh/                   solve/
display/                parallel/               surface/
exit                    plot/                   views/

> ;/solve/monitors/force/set-drag-monitor cx y che1 zxj1 zxj2 che2 zxj3 zxj4 che3 zxj5 zxj6 () n y "cx-CRH380A" n y 1 0 0
;/solve/monitors/force/set-drag-monitor cy y che1 zxj1 zxj2 che2 zxj3 zxj4 che3 zxj5 zxj6 () n y "cy-1D-30" n y 0 1 0
;/solve/monitors/force/set-drag-monitor cz y che1 zxj1 zxj2 che2 zxj3 zxj4 che3 zxj5 zxj6 () n y "cz-CRH380A" n y 0 0 1

adjoint/                file/                   report/
define/                 mesh/                   solve/
display/                parallel/               surface/
exit                    plot/                   views/

> ;/solve/monitors/force/set-moment-monitor mx y che1 zxj1 zxj2 fd1 che2 zxj3 zxj4 fd2 che3 zxj5 zxj6 () n y "mx-1D-30" n y 0 0 0 1 0 0
;/solve/monitors/force/set-moment-monitor my y che1 zxj1 zxj2 fd1 che2 zxj3 zxj4 fd2 che3 zxj5 zxj6 () n y "my-1D-30" n y 0 0 0 0 1 0
;/solve/monitors/force/set-moment-monitor mz y che1 zxj1 zxj2 fd1 che2 zxj3 zxj4 fd2 che3 zxj5 zxj6 () n y "mz-1D-30" n y 0 0 0 0 0 1

adjoint/                file/                   report/
define/                 mesh/                   solve/
display/                parallel/               surface/
exit                    plot/                   views/

> 
adjoint/                file/                   report/
define/                 mesh/                   solve/
display/                parallel/               surface/
exit                    plot/                   views/

> ;init solve set
/solve/initialize/reference-frame Current Reference Frame : Relative to Cell Zoneabsolute

> /solve/initialize/initialize-flow

> ;solve/set/time-step 0.00005
/solve/iterate 500

  iter  continuity  x-velocity  y-velocity  z-velocity           k     epsilon     time/iter
     1  1.0000e+00  1.0570e+04  9.2552e+02  9.9355e+03  1.0144e+00  5.8910e+02  0:16:38  499

 Reversed flow on 4385 faces (100.0% area) of pressure-outlet 24.
     2  6.1716e-01  1.3381e-02  9.5090e-03  2.4698e-02  2.0582e-01  8.0811e-01  0:16:36  498

 Reversed flow on 12 faces (2.0% area) of pressure-outlet 22.

 Reversed flow on 436 faces (11.8% area) of pressure-outlet 24.
     3  7.1439e-01  2.8409e-02  2.4523e-02  2.1290e-02  2.1145e-01  6.8799e-01  0:16:34  497

 Reversed flow on 12 faces (2.2% area) of pressure-outlet 22.

 Reversed flow on 2374 faces (56.4% area) of pressure-outlet 24.

 Reversed flow on 1074 faces (35.9% area) of pressure-outlet 25.
     4  5.9717e-01  1.3371e-02  1.2439e-02  1.5044e-02  9.9898e-02  5.6523e-01  0:14:53  496

 Reversed flow on 12 faces (2.2% area) of pressure-outlet 22.

 Reversed flow on 1728 faces (38.3% area) of pressure-outlet 24.

 Reversed flow on 986 faces (31.9% area) of pressure-outlet 25.
     5  5.2626e-01  1.2087e-02  1.0901e-02  8.0904e-03  4.4777e-02  3.7371e-01  0:16:50  495

 Reversed flow on 4 faces (0.9% area) of pressure-outlet 22.

 Reversed flow on 1599 faces (37.8% area) of pressure-outlet 24.

 Reversed flow on 1351 faces (46.6% area) of pressure-outlet 25.
     6  5.0593e-01  9.5901e-03  8.6045e-03  7.0384e-03  2.5282e-02  2.2832e-01  0:16:44  494

 Reversed flow on 1316 faces (31.0% area) of pressure-outlet 24.

 Reversed flow on 1469 faces (53.0% area) of pressure-outlet 25.
     7  4.7369e-01  7.7118e-03  6.9066e-03  4.7978e-03  1.9236e-02  8.7012e-02  0:15:00  493

 Reversed flow on 1294 faces (29.8% area) of pressure-outlet 24.

 Reversed flow on 1613 faces (60.0% area) of pressure-outlet 25.
     8  4.4554e-01  6.4982e-03  5.9464e-03  4.4670e-03  1.8222e-02  1.2075e-01  0:15:15  492

 turbulent viscosity limited to viscosity ratio of 1.000000e+05 in 155 cells 

 Reversed flow on 1285 faces (29.4% area) of pressure-outlet 24.

 Reversed flow on 1567 faces (59.5% area) of pressure-outlet 25.
     9  4.1793e-01  5.4696e-03  5.0883e-03  3.7090e-03  1.7058e-02  1.0834e-01  0:15:27  491

 turbulent viscosity limited to viscosity ratio of 1.000000e+05 in 13145 cells 

 Reversed flow on 1286 faces (29.4% area) of pressure-outlet 24.

 Reversed flow on 1476 faces (60.1% area) of pressure-outlet 25.
    10  3.9252e-01  4.8038e-03  4.5337e-03  3.6448e-03  1.6568e-02  8.7575e-02  0:15:36  490

 turbulent viscosity limited to viscosity ratio of 1.000000e+05 in 3529 cells 

 Reversed flow on 1308 faces (29.8% area) of pressure-outlet 24.

 Reversed flow on 1222 faces (58.8% area) of pressure-outlet 25.
    11  3.6779e-01  4.3214e-03  4.0795e-03  3.7299e-03  2.0517e-02  7.4962e-02  0:15:43  489

 turbulent viscosity limited to viscosity ratio of 1.000000e+05 in 9510 cells 

 Reversed flow on 1408 faces (31.9% area) of pressure-outlet 24.

 Reversed flow on 1333 faces (64.0% area) of pressure-outlet 25.

  iter  continuity  x-velocity  y-velocity  z-velocity           k     epsilon     time/iter
    12  3.4601e-01  4.1312e-03  3.8678e-03  3.7268e-03  2.4766e-02  6.8422e-02  0:14:11  488
        Stabilizing pressure coupled to enhance linear solver robustness.

 turbulent viscosity limited to viscosity ratio of 1.000000e+05 in 57578 cells 

 Reversed flow on 1521 faces (34.0% area) of pressure-outlet 24.

 Reversed flow on 1397 faces (67.3% area) of pressure-outlet 25.
    13  3.3204e-01  4.0384e-03  3.8597e-03  3.6894e-03  6.4864e-02  2.8279e+01  0:24:18  487

 turbulent viscosity limited to viscosity ratio of 1.000000e+05 in 28512 cells 

 Reversed flow on 1694 faces (38.0% area) of pressure-outlet 24.

 Reversed flow on 1114 faces (54.3% area) of pressure-outlet 25.
    14  3.3015e-01  4.7346e-03  5.7081e-03  4.4855e-03  3.2418e-01  3.5784e+00  0:22:39  486

 turbulent viscosity limited to viscosity ratio of 1.000000e+05 in 18016 cells 

 Reversed flow on 1422 faces (32.1% area) of pressure-outlet 24.

 Reversed flow on 960 faces (47.0% area) of pressure-outlet 25.
    15  3.3114e-01  4.0555e-03  3.9273e-03  3.7835e-03  3.1171e-01  8.6535e-01  0:21:19  485

 turbulent viscosity limited to viscosity ratio of 1.000000e+05 in 12836 cells 

 Reversed flow on 1498 faces (33.6% area) of pressure-outlet 24.

 Reversed flow on 1016 faces (49.5% area) of pressure-outlet 25.
    16  3.4974e-01  3.9107e-03  3.7185e-03  3.7437e-03  1.9601e-01  9.0642e-01  0:21:51  484

 turbulent viscosity limited to viscosity ratio of 1.000000e+05 in 6765 cells 

 Reversed flow on 2233 faces (48.6% area) of pressure-outlet 24.

 Reversed flow on 1096 faces (53.0% area) of pressure-outlet 25.
    17  3.7490e-01  3.7421e-03  3.6917e-03  3.8419e-03  8.7827e-02  8.7483e-01  0:20:40  483

 turbulent viscosity limited to viscosity ratio of 1.000000e+05 in 764 cells 

 Reversed flow on 3016 faces (66.4% area) of pressure-outlet 24.

 Reversed flow on 1199 faces (57.7% area) of pressure-outlet 25.
    18  3.9375e-01  3.5399e-03  3.5961e-03  3.9675e-03  3.7807e-02  7.2179e-01  0:19:43  482

 turbulent viscosity limited to viscosity ratio of 1.000000e+05 in 165 cells 

 Reversed flow on 3224 faces (72.7% area) of pressure-outlet 24.

 Reversed flow on 1171 faces (56.4% area) of pressure-outlet 25.
    19  4.0511e-01  3.4160e-03  3.3692e-03  3.9369e-03  1.9918e-02  4.3208e-01  0:17:20  481

 turbulent viscosity limited to viscosity ratio of 1.000000e+05 in 248 cells 

 Reversed flow on 3783 faces (85.2% area) of pressure-outlet 24.

 Reversed flow on 1185 faces (56.7% area) of pressure-outlet 25.
    20  4.0270e-01  3.2549e-03  3.1367e-03  3.7903e-03  1.3293e-02  1.5908e-01  0:18:39  480

 turbulent viscosity limited to viscosity ratio of 1.000000e+05 in 120 cells 

 Reversed flow on 3976 faces (89.9% area) of pressure-outlet 24.

 Reversed flow on 1167 faces (55.8% area) of pressure-outlet 25.
    21  3.9952e-01  3.0806e-03  2.9609e-03  3.5781e-03  1.0738e-02  4.8198e-02  0:18:05  479

 turbulent viscosity limited to viscosity ratio of 1.000000e+05 in 150 cells 

 Reversed flow on 4266 faces (96.6% area) of pressure-outlet 24.

 Reversed flow on 1162 faces (55.6% area) of pressure-outlet 25.
    22  3.9658e-01  2.9173e-03  2.7970e-03  3.3659e-03  9.4524e-03  2.5412e-02  0:17:37  478

 turbulent viscosity limited to viscosity ratio of 1.000000e+05 in 381 cells 

 Reversed flow on 4235 faces (96.0% area) of pressure-outlet 24.

 Reversed flow on 1183 faces (56.6% area) of pressure-outlet 25.

  iter  continuity  x-velocity  y-velocity  z-velocity           k     epsilon     time/iter
    23  3.9243e-01  2.7540e-03  2.6405e-03  3.1865e-03  8.6455e-03  2.2232e-02  0:17:15  477

 turbulent viscosity limited to viscosity ratio of 1.000000e+05 in 183 cells 

 Reversed flow on 4173 faces (95.3% area) of pressure-outlet 24.

 Reversed flow on 1209 faces (58.0% area) of pressure-outlet 25.
    24  3.8648e-01  2.6175e-03  2.5202e-03  3.0452e-03  7.8696e-03  2.0549e-02  0:18:32  476

 turbulent viscosity limited to viscosity ratio of 1.000000e+05 in 96 cells 

 Reversed flow on 4244 faces (96.4% area) of pressure-outlet 24.

 Reversed flow on 1305 faces (62.7% area) of pressure-outlet 25.
    25  3.7765e-01  2.4934e-03  2.4021e-03  2.8855e-03  7.1998e-03  1.9487e-02  0:17:57  475

 turbulent viscosity limited to viscosity ratio of 1.000000e+05 in 16 cells 

 Reversed flow on 4302 faces (97.7% area) of pressure-outlet 24.

 Reversed flow on 1376 faces (66.0% area) of pressure-outlet 25.
    26  3.6697e-01  2.3922e-03  2.3051e-03  2.7299e-03  6.3398e-03  1.8221e-02  0:15:55  474

 turbulent viscosity limited to viscosity ratio of 1.000000e+05 in 44 cells 

 Reversed flow on 4248 faces (96.6% area) of pressure-outlet 24.

 Reversed flow on 1446 faces (69.3% area) of pressure-outlet 25.
    27  3.5257e-01  2.2612e-03  2.1948e-03  2.5461e-03  5.8122e-03  1.7412e-02  0:15:52  473

 turbulent viscosity limited to viscosity ratio of 1.000000e+05 in 69 cells 

 Reversed flow on 3893 faces (89.0% area) of pressure-outlet 24.

 Reversed flow on 1469 faces (70.4% area) of pressure-outlet 25.
    28  3.4111e-01  2.2014e-03  2.1420e-03  2.4500e-03  5.4672e-03  1.6304e-02  0:14:14  472

 turbulent viscosity limited to viscosity ratio of 1.000000e+05 in 37 cells 

 Reversed flow on 3651 faces (83.2% area) of pressure-outlet 24.

 Reversed flow on 1507 faces (72.2% area) of pressure-outlet 25.
    29  3.3503e-01  2.1822e-03  2.1256e-03  2.3952e-03  5.2813e-03  1.5393e-02  0:14:30  471

 turbulent viscosity limited to viscosity ratio of 1.000000e+05 in 1 cells 

 Reversed flow on 3232 faces (74.1% area) of pressure-outlet 24.

 Reversed flow on 1525 faces (73.0% area) of pressure-outlet 25.
    30  3.3447e-01  2.1805e-03  2.1118e-03  2.3711e-03  5.0429e-03  1.4171e-02  0:13:09  470

 Reversed flow on 2926 faces (67.0% area) of pressure-outlet 24.

 Reversed flow on 1542 faces (73.7% area) of pressure-outlet 25.
    31  3.3651e-01  2.1855e-03  2.0937e-03  2.3457e-03  4.9208e-03  1.3562e-02  0:13:37  469

 Reversed flow on 2855 faces (65.3% area) of pressure-outlet 24.

 Reversed flow on 1555 faces (74.3% area) of pressure-outlet 25.
    32  3.3868e-01  2.1891e-03  2.0749e-03  2.3141e-03  4.7443e-03  1.2689e-02  0:14:00  468

 Reversed flow on 2888 faces (66.0% area) of pressure-outlet 24.

 Reversed flow on 1562 faces (74.6% area) of pressure-outlet 25.
    33  3.4062e-01  2.1788e-03  2.0503e-03  2.2790e-03  4.6490e-03  1.1540e-02  0:12:44  467

 Reversed flow on 2972 faces (67.9% area) of pressure-outlet 24.

 Reversed flow on 1572 faces (75.1% area) of pressure-outlet 25.

  iter  continuity  x-velocity  y-velocity  z-velocity           k     epsilon     time/iter
    34  3.4104e-01  2.1604e-03  2.0237e-03  2.2437e-03  4.5448e-03  1.0760e-02  0:13:16  466

 Reversed flow on 3064 faces (70.4% area) of pressure-outlet 24.

 Reversed flow on 1575 faces (75.2% area) of pressure-outlet 25.
    35  3.4211e-01  2.1317e-03  2.0114e-03  2.2094e-03  4.4826e-03  1.0222e-02  0:12:08  465

 Reversed flow on 3095 faces (71.2% area) of pressure-outlet 24.

 Reversed flow on 1579 faces (75.4% area) of pressure-outlet 25.
    36  3.4339e-01  2.1138e-03  1.9987e-03  2.1831e-03  4.4630e-03  1.0021e-02  0:11:14  464

 Reversed flow on 3074 faces (71.0% area) of pressure-outlet 24.

 Reversed flow on 1575 faces (75.2% area) of pressure-outlet 25.
    37  3.4513e-01  2.1000e-03  1.9991e-03  2.1669e-03  4.3614e-03  8.9978e-03  0:12:03  463

 Reversed flow on 3013 faces (69.8% area) of pressure-outlet 24.

 Reversed flow on 1572 faces (75.1% area) of pressure-outlet 25.
    38  3.4840e-01  2.1114e-03  2.0020e-03  2.1575e-03  4.2778e-03  8.7279e-03  0:12:42  462

 Reversed flow on 2927 faces (68.2% area) of pressure-outlet 24.

 Reversed flow on 1568 faces (75.0% area) of pressure-outlet 25.
    39  3.5297e-01  2.1194e-03  2.0293e-03  2.1543e-03  4.1430e-03  8.3374e-03  0:13:13  461

 Reversed flow on 2859 faces (66.6% area) of pressure-outlet 24.

 Reversed flow on 1570 faces (75.0% area) of pressure-outlet 25.
    40  3.5784e-01  2.1311e-03  2.0491e-03  2.1557e-03  4.1470e-03  8.6753e-03  0:12:05  460

 Reversed flow on 2852 faces (66.4% area) of pressure-outlet 24.

 Reversed flow on 1571 faces (75.1% area) of pressure-outlet 25.
    41  3.6186e-01  2.1225e-03  2.0705e-03  2.1653e-03  4.0668e-03  8.4122e-03  0:11:11  459

 Reversed flow on 2832 faces (66.4% area) of pressure-outlet 24.

 Reversed flow on 1569 faces (75.0% area) of pressure-outlet 25.
    42  3.6657e-01  2.1136e-03  2.0764e-03  2.1773e-03  4.1297e-03  8.5964e-03  0:11:58  458

 Reversed flow on 2815 faces (65.9% area) of pressure-outlet 24.

 Reversed flow on 1569 faces (75.0% area) of pressure-outlet 25.
    43  3.7118e-01  2.0996e-03  2.0738e-03  2.1904e-03  4.0860e-03  8.3283e-03  0:11:05  457

 Reversed flow on 2750 faces (64.5% area) of pressure-outlet 24.

 Reversed flow on 1577 faces (75.3% area) of pressure-outlet 25.
    44  3.7705e-01  2.0942e-03  2.0583e-03  2.1966e-03  4.1489e-03  8.8738e-03  0:11:53  456

 Reversed flow on 2682 faces (62.8% area) of pressure-outlet 24.

 Reversed flow on 1586 faces (75.7% area) of pressure-outlet 25.

  iter  continuity  x-velocity  y-velocity  z-velocity           k     epsilon     time/iter
    45  3.8377e-01  2.0917e-03  2.0464e-03  2.1997e-03  4.0583e-03  8.9515e-03  0:11:00  455

 Reversed flow on 2617 faces (61.2% area) of pressure-outlet 24.

 Reversed flow on 1598 faces (76.3% area) of pressure-outlet 25.
    46  3.8987e-01  2.0901e-03  2.0284e-03  2.1967e-03  4.0012e-03  8.9371e-03  0:11:49  454

 Reversed flow on 2553 faces (59.7% area) of pressure-outlet 24.

 Reversed flow on 1610 faces (76.7% area) of pressure-outlet 25.
    47  3.9225e-01  2.0864e-03  1.9981e-03  2.1700e-03  3.8185e-03  8.4272e-03  0:12:27  453

 Reversed flow on 2533 faces (58.7% area) of pressure-outlet 24.

 Reversed flow on 1616 faces (77.0% area) of pressure-outlet 25.
    48  3.9167e-01  2.0612e-03  1.9591e-03  2.1292e-03  3.7326e-03  7.9315e-03  0:11:27  452

 Reversed flow on 2570 faces (59.3% area) of pressure-outlet 24.

 Reversed flow on 1626 faces (77.4% area) of pressure-outlet 25.
    49  3.8780e-01  2.0346e-03  1.9127e-03  2.0877e-03  3.6860e-03  7.8215e-03  0:12:08  451

 Reversed flow on 2651 faces (61.4% area) of pressure-outlet 24.

 Reversed flow on 1627 faces (77.4% area) of pressure-outlet 25.
    50  3.8257e-01  2.0012e-03  1.8844e-03  2.0579e-03  3.6736e-03  7.3665e-03  0:12:41  450

 Reversed flow on 2758 faces (64.2% area) of pressure-outlet 24.

 Reversed flow on 1621 faces (77.2% area) of pressure-outlet 25.
    51  3.7878e-01  1.9887e-03  1.8695e-03  2.0496e-03  3.7077e-03  7.6159e-03  0:13:07  449

 Reversed flow on 2860 faces (66.4% area) of pressure-outlet 24.

 Reversed flow on 1610 faces (76.7% area) of pressure-outlet 25.
    52  3.7758e-01  1.9780e-03  1.8748e-03  2.0613e-03  3.6670e-03  7.4630e-03  0:11:58  448

 Reversed flow on 2942 faces (68.3% area) of pressure-outlet 24.

 Reversed flow on 1598 faces (76.2% area) of pressure-outlet 25.
    53  3.7975e-01  1.9895e-03  1.8793e-03  2.0755e-03  3.7092e-03  8.0138e-03  0:12:32  447

 Reversed flow on 3038 faces (70.2% area) of pressure-outlet 24.

 Reversed flow on 1590 faces (75.9% area) of pressure-outlet 25.
    54  3.8459e-01  1.9871e-03  1.8923e-03  2.0918e-03  3.6156e-03  7.5505e-03  0:11:29  446

 Reversed flow on 3084 faces (70.8% area) of pressure-outlet 24.

 Reversed flow on 1582 faces (75.5% area) of pressure-outlet 25.
    55  3.9079e-01  1.9890e-03  1.8921e-03  2.1092e-03  3.6407e-03  7.6842e-03  0:12:08  445

 Reversed flow on 3035 faces (69.5% area) of pressure-outlet 24.

 Reversed flow on 1580 faces (75.4% area) of pressure-outlet 25.

  iter  continuity  x-velocity  y-velocity  z-velocity           k     epsilon     time/iter
    56  3.9535e-01  1.9853e-03  1.8979e-03  2.1306e-03  3.5300e-03  7.1369e-03  0:12:39  444

 Reversed flow on 2935 faces (67.3% area) of pressure-outlet 24.

 Reversed flow on 1577 faces (75.3% area) of pressure-outlet 25.
    57  4.0047e-01  1.9938e-03  1.9019e-03  2.1603e-03  3.5399e-03  7.1312e-03  0:11:34  443

 Reversed flow on 2819 faces (64.9% area) of pressure-outlet 24.

 Reversed flow on 1573 faces (75.1% area) of pressure-outlet 25.
    58  4.0611e-01  1.9971e-03  1.9192e-03  2.1947e-03  3.4038e-03  6.5511e-03  0:10:43  442

 Reversed flow on 2703 faces (62.1% area) of pressure-outlet 24.

 Reversed flow on 1577 faces (75.2% area) of pressure-outlet 25.
    59  4.1210e-01  2.0005e-03  1.9431e-03  2.2249e-03  3.3627e-03  6.3374e-03  0:11:29  441

 Reversed flow on 2652 faces (60.7% area) of pressure-outlet 24.

 Reversed flow on 1583 faces (75.5% area) of pressure-outlet 25.
    60  4.1830e-01  1.9955e-03  1.9685e-03  2.2408e-03  3.2281e-03  6.0500e-03  0:12:06  440

 Reversed flow on 2611 faces (59.5% area) of pressure-outlet 24.

 Reversed flow on 1594 faces (76.1% area) of pressure-outlet 25.
    61  4.2441e-01  1.9786e-03  1.9934e-03  2.2384e-03  3.1848e-03  6.2094e-03  0:11:07  439

 Reversed flow on 2632 faces (59.4% area) of pressure-outlet 24.

 Reversed flow on 1599 faces (76.3% area) of pressure-outlet 25.
    62  4.2785e-01  1.9501e-03  2.0122e-03  2.2192e-03  3.0752e-03  6.1806e-03  0:11:48  438

 Reversed flow on 2649 faces (59.6% area) of pressure-outlet 24.

 Reversed flow on 1597 faces (76.2% area) of pressure-outlet 25.
    63  4.2944e-01  1.9205e-03  2.0221e-03  2.1940e-03  3.0301e-03  6.0725e-03  0:12:20  437

 Reversed flow on 2671 faces (60.3% area) of pressure-outlet 24.

 Reversed flow on 1598 faces (76.2% area) of pressure-outlet 25.
    64  4.3002e-01  1.9025e-03  2.0255e-03  2.1716e-03  2.9793e-03  6.1050e-03  0:11:18  436

 Reversed flow on 2698 faces (61.0% area) of pressure-outlet 24.

 Reversed flow on 1598 faces (76.2% area) of pressure-outlet 25.
    65  4.2897e-01  1.8951e-03  2.0316e-03  2.1597e-03  2.9799e-03  6.0913e-03  0:11:55  435

 Reversed flow on 2743 faces (62.1% area) of pressure-outlet 24.

 Reversed flow on 1593 faces (75.9% area) of pressure-outlet 25.
    66  4.2801e-01  1.9067e-03  2.0356e-03  2.1587e-03  2.9824e-03  6.1804e-03  0:10:57  434

 Reversed flow on 2835 faces (64.6% area) of pressure-outlet 24.

 Reversed flow on 1579 faces (75.3% area) of pressure-outlet 25.

  iter  continuity  x-velocity  y-velocity  z-velocity           k     epsilon     time/iter
    67  4.2873e-01  1.9238e-03  2.0375e-03  2.1626e-03  2.9932e-03  5.8184e-03  0:10:11  433

 Reversed flow on 2910 faces (67.5% area) of pressure-outlet 24.

 Reversed flow on 1568 faces (74.7% area) of pressure-outlet 25.
    68  4.3123e-01  1.9517e-03  2.0355e-03  2.1683e-03  3.0529e-03  5.9028e-03  0:11:01  432

 Reversed flow on 2943 faces (68.7% area) of pressure-outlet 24.

 Reversed flow on 1557 faces (74.3% area) of pressure-outlet 25.
    69  4.3461e-01  1.9852e-03  2.0390e-03  2.1813e-03  3.0843e-03  5.5577e-03  0:10:14  431

 Reversed flow on 2957 faces (69.4% area) of pressure-outlet 24.

 Reversed flow on 1550 faces (74.0% area) of pressure-outlet 25.
    70  4.3943e-01  2.0262e-03  2.0450e-03  2.2039e-03  3.1513e-03  5.9206e-03  0:11:02  430

 Reversed flow on 2919 faces (69.1% area) of pressure-outlet 24.

 Reversed flow on 1539 faces (73.5% area) of pressure-outlet 25.
    71  4.4589e-01  2.0546e-03  2.0600e-03  2.2272e-03  3.1474e-03  5.5963e-03  0:10:14  429

 Reversed flow on 2984 faces (70.8% area) of pressure-outlet 24.

 Reversed flow on 1535 faces (73.4% area) of pressure-outlet 25.
    72  4.5215e-01  2.0800e-03  2.0720e-03  2.2397e-03  3.2243e-03  6.1399e-03  0:09:36  428

 Reversed flow on 3065 faces (72.6% area) of pressure-outlet 24.

 Reversed flow on 1530 faces (73.1% area) of pressure-outlet 25.
    73  4.5693e-01  2.0871e-03  2.0916e-03  2.2481e-03  3.2283e-03  6.1574e-03  0:11:56  427

 Reversed flow on 3139 faces (74.3% area) of pressure-outlet 24.

 Reversed flow on 1523 faces (72.8% area) of pressure-outlet 25.
    74  4.5982e-01  2.0905e-03  2.1113e-03  2.2554e-03  3.3255e-03  6.8461e-03  0:10:56  426

 Reversed flow on 3186 faces (75.7% area) of pressure-outlet 24.

 Reversed flow on 1520 faces (72.6% area) of pressure-outlet 25.
    75  4.6117e-01  2.0842e-03  2.1361e-03  2.2593e-03  3.2895e-03  6.7148e-03  0:11:34  425

 Reversed flow on 3181 faces (76.4% area) of pressure-outlet 24.

 Reversed flow on 1515 faces (72.4% area) of pressure-outlet 25.
    76  4.6140e-01  2.0715e-03  2.1391e-03  2.2526e-03  3.2947e-03  7.1017e-03  0:12:03  424

 Reversed flow on 3167 faces (76.6% area) of pressure-outlet 24.

 Reversed flow on 1512 faces (72.3% area) of pressure-outlet 25.
    77  4.6061e-01  2.0423e-03  2.1239e-03  2.2222e-03  3.1299e-03  6.5851e-03  0:11:02  423

 Reversed flow on 3154 faces (76.6% area) of pressure-outlet 24.

 Reversed flow on 1519 faces (72.6% area) of pressure-outlet 25.

  iter  continuity  x-velocity  y-velocity  z-velocity           k     epsilon     time/iter
    78  4.5819e-01  2.0159e-03  2.0782e-03  2.1779e-03  3.0639e-03  6.5668e-03  0:11:37  422

 Reversed flow on 3121 faces (76.2% area) of pressure-outlet 24.

 Reversed flow on 1522 faces (72.8% area) of pressure-outlet 25.
    79  4.5438e-01  1.9904e-03  2.0272e-03  2.1374e-03  2.8887e-03  6.0021e-03  0:10:41  421

 Reversed flow on 3095 faces (75.6% area) of pressure-outlet 24.

 Reversed flow on 1533 faces (73.3% area) of pressure-outlet 25.
    80  4.5039e-01  1.9783e-03  1.9776e-03  2.1072e-03  2.8815e-03  6.2035e-03  0:09:55  420

 Reversed flow on 3074 faces (75.4% area) of pressure-outlet 24.

 Reversed flow on 1537 faces (73.5% area) of pressure-outlet 25.
    81  4.4811e-01  1.9697e-03  1.9523e-03  2.0903e-03  2.7710e-03  5.7978e-03  0:09:19  419

 Reversed flow on 3086 faces (76.0% area) of pressure-outlet 24.

 Reversed flow on 1545 faces (73.8% area) of pressure-outlet 25.
    82  4.4771e-01  1.9667e-03  1.9425e-03  2.0871e-03  2.8273e-03  6.0188e-03  0:10:13  418

 Reversed flow on 3095 faces (76.6% area) of pressure-outlet 24.

 Reversed flow on 1547 faces (73.9% area) of pressure-outlet 25.
    83  4.4893e-01  1.9698e-03  1.9469e-03  2.0927e-03  2.7512e-03  5.6402e-03  0:10:56  417

 Reversed flow on 3115 faces (77.0% area) of pressure-outlet 24.

 Reversed flow on 1560 faces (74.5% area) of pressure-outlet 25.
    84  4.5299e-01  1.9803e-03  1.9558e-03  2.1114e-03  2.8135e-03  5.8722e-03  0:10:07  416

 Reversed flow on 3122 faces (77.0% area) of pressure-outlet 24.

 Reversed flow on 1563 faces (74.6% area) of pressure-outlet 25.
    85  4.5817e-01  1.9957e-03  1.9743e-03  2.1374e-03  2.7484e-03  5.6855e-03  0:10:50  415

 Reversed flow on 3103 faces (76.5% area) of pressure-outlet 24.

 Reversed flow on 1577 faces (75.3% area) of pressure-outlet 25.
    86  4.6531e-01  2.0184e-03  1.9953e-03  2.1707e-03  2.8390e-03  6.1367e-03  0:10:02  414

 Reversed flow on 3088 faces (76.1% area) of pressure-outlet 24.

 Reversed flow on 1585 faces (75.7% area) of pressure-outlet 25.
    87  4.7262e-01  2.0407e-03  2.0188e-03  2.2041e-03  2.8094e-03  6.1199e-03  0:10:45  413

 Reversed flow on 3059 faces (75.3% area) of pressure-outlet 24.

 Reversed flow on 1589 faces (75.8% area) of pressure-outlet 25.
    88  4.8001e-01  2.0584e-03  2.0389e-03  2.2395e-03  2.9148e-03  6.4862e-03  0:11:20  412

 Reversed flow on 3026 faces (74.5% area) of pressure-outlet 24.

 Reversed flow on 1596 faces (76.1% area) of pressure-outlet 25.

  iter  continuity  x-velocity  y-velocity  z-velocity           k     epsilon     time/iter
    89  4.8664e-01  2.0778e-03  2.0681e-03  2.2756e-03  2.9312e-03  6.6810e-03  0:10:25  411

 Reversed flow on 2980 faces (73.7% area) of pressure-outlet 24.

 Reversed flow on 1600 faces (76.3% area) of pressure-outlet 25.
    90  4.9252e-01  2.0941e-03  2.1005e-03  2.3139e-03  3.0137e-03  6.7798e-03  0:11:03  410

 Reversed flow on 2953 faces (73.2% area) of pressure-outlet 24.

 Reversed flow on 1604 faces (76.5% area) of pressure-outlet 25.
    91  4.9820e-01  2.1020e-03  2.1237e-03  2.3378e-03  3.0261e-03  6.9972e-03  0:10:11  409

 turbulent viscosity limited to viscosity ratio of 1.000000e+05 in 1 cells 

 Reversed flow on 2948 faces (73.3% area) of pressure-outlet 24.

 Reversed flow on 1602 faces (76.4% area) of pressure-outlet 25.
    92  5.0341e-01  2.1020e-03  2.1389e-03  2.3462e-03  3.0703e-03  6.8510e-03  0:10:51  408

 turbulent viscosity limited to viscosity ratio of 1.000000e+05 in 11 cells 

 Reversed flow on 2958 faces (73.6% area) of pressure-outlet 24.

 Reversed flow on 1590 faces (75.9% area) of pressure-outlet 25.
    93  5.0749e-01  2.1014e-03  2.1390e-03  2.3436e-03  3.0768e-03  7.0360e-03  0:11:22  407

 turbulent viscosity limited to viscosity ratio of 1.000000e+05 in 7 cells 

 Reversed flow on 2988 faces (74.1% area) of pressure-outlet 24.

 Reversed flow on 1576 faces (75.2% area) of pressure-outlet 25.
    94  5.1184e-01  2.1001e-03  2.1285e-03  2.3310e-03  3.0666e-03  6.8963e-03  0:10:25  406

 turbulent viscosity limited to viscosity ratio of 1.000000e+05 in 4 cells 

 Reversed flow on 3015 faces (74.5% area) of pressure-outlet 24.

 Reversed flow on 1539 faces (73.6% area) of pressure-outlet 25.
    95  5.1492e-01  2.0993e-03  2.0998e-03  2.3111e-03  3.0259e-03  6.7831e-03  0:11:01  405

 turbulent viscosity limited to viscosity ratio of 1.000000e+05 in 1 cells 

 Reversed flow on 3068 faces (75.2% area) of pressure-outlet 24.

 Reversed flow on 1490 faces (71.5% area) of pressure-outlet 25.
    96  5.1494e-01  2.0960e-03  2.0687e-03  2.2929e-03  3.0790e-03  6.8396e-03  0:11:29  404

 Reversed flow on 3099 faces (75.6% area) of pressure-outlet 24.

 Reversed flow on 1449 faces (69.6% area) of pressure-outlet 25.
    97  5.1343e-01  2.0940e-03  2.0429e-03  2.2934e-03  3.1238e-03  6.8293e-03  0:10:31  403

 Reversed flow on 3126 faces (76.2% area) of pressure-outlet 24.

 Reversed flow on 1438 faces (69.1% area) of pressure-outlet 25.
    98  5.1258e-01  2.1011e-03  2.0434e-03  2.3180e-03  3.1812e-03  6.7893e-03  0:09:44  402

 turbulent viscosity limited to viscosity ratio of 1.000000e+05 in 3 cells 

 Reversed flow on 3169 faces (77.0% area) of pressure-outlet 24.

 Reversed flow on 1446 faces (69.4% area) of pressure-outlet 25.
    99  5.1606e-01  2.1281e-03  2.0614e-03  2.3682e-03  3.2282e-03  6.7389e-03  0:10:26  401

 turbulent viscosity limited to viscosity ratio of 1.000000e+05 in 478 cells 

 Reversed flow on 3295 faces (79.1% area) of pressure-outlet 24.

 Reversed flow on 1450 faces (69.5% area) of pressure-outlet 25.

  iter  continuity  x-velocity  y-velocity  z-velocity           k     epsilon     time/iter
   100  5.2238e-01  2.1686e-03  2.0953e-03  2.4398e-03  3.5697e-03  7.2376e-03  0:09:40  400

 turbulent viscosity limited to viscosity ratio of 1.000000e+05 in 968 cells 

 Reversed flow on 3497 faces (83.0% area) of pressure-outlet 24.

 Reversed flow on 1457 faces (69.9% area) of pressure-outlet 25.
   101  5.3036e-01  2.2314e-03  2.1461e-03  2.5345e-03  6.2230e-03  7.9447e-03  0:18:21  399

 turbulent viscosity limited to viscosity ratio of 1.000000e+05 in 77 cells 

 Reversed flow on 3500 faces (83.4% area) of pressure-outlet 24.

 Reversed flow on 1470 faces (70.5% area) of pressure-outlet 25.
   102  5.4257e-01  2.3158e-03  2.2117e-03  2.6253e-03  7.3478e-03  7.9290e-03  0:15:58  398

 turbulent viscosity limited to viscosity ratio of 1.000000e+05 in 45 cells 

 Reversed flow on 3393 faces (80.4% area) of pressure-outlet 24.

 Reversed flow on 1491 faces (71.4% area) of pressure-outlet 25.
   103  5.5465e-01  2.3875e-03  2.2620e-03  2.6901e-03  5.2472e-03  7.9134e-03  0:14:04  397

 turbulent viscosity limited to viscosity ratio of 1.000000e+05 in 12 cells 

 Reversed flow on 3297 faces (78.0% area) of pressure-outlet 24.

 Reversed flow on 1514 faces (72.5% area) of pressure-outlet 25.
   104  5.6543e-01  2.4426e-03  2.3241e-03  2.7385e-03  4.1751e-03  8.0704e-03  0:13:52  396

 Reversed flow on 3217 faces (76.1% area) of pressure-outlet 24.

 Reversed flow on 1528 faces (73.1% area) of pressure-outlet 25.
   105  5.7302e-01  2.4919e-03  2.3645e-03  2.7588e-03  3.9127e-03  8.5317e-03  0:13:42  395

 Reversed flow on 3270 faces (77.6% area) of pressure-outlet 24.

 Reversed flow on 1545 faces (74.0% area) of pressure-outlet 25.
   106  5.7880e-01  2.5251e-03  2.4086e-03  2.7515e-03  3.8230e-03  8.7016e-03  0:12:15  394

 Reversed flow on 3265 faces (77.3% area) of pressure-outlet 24.

 Reversed flow on 1554 faces (74.4% area) of pressure-outlet 25.
   107  5.8210e-01  2.5496e-03  2.4352e-03  2.7221e-03  3.8610e-03  9.0927e-03  0:12:23  393

 turbulent viscosity limited to viscosity ratio of 1.000000e+05 in 5 cells 

 Reversed flow on 3244 faces (76.8% area) of pressure-outlet 24.

 Reversed flow on 1569 faces (75.1% area) of pressure-outlet 25.
   108  5.8327e-01  2.5484e-03  2.4470e-03  2.6884e-03  3.8448e-03  9.0805e-03  0:11:12  392

 turbulent viscosity limited to viscosity ratio of 1.000000e+05 in 1 cells 

 Reversed flow on 3023 faces (72.9% area) of pressure-outlet 24.

 Reversed flow on 1573 faces (75.3% area) of pressure-outlet 25.
   109  5.8141e-01  2.5385e-03  2.4368e-03  2.6669e-03  3.8956e-03  9.4518e-03  0:11:32  391

 Reversed flow on 2850 faces (68.6% area) of pressure-outlet 24.

 Reversed flow on 1571 faces (75.1% area) of pressure-outlet 25.
   110  5.7768e-01  2.5119e-03  2.4280e-03  2.6609e-03  3.8199e-03  9.1522e-03  0:11:48  390

 Reversed flow on 2876 faces (69.3% area) of pressure-outlet 24.

 Reversed flow on 1565 faces (74.8% area) of pressure-outlet 25.

  iter  continuity  x-velocity  y-velocity  z-velocity           k     epsilon     time/iter
   111  5.7255e-01  2.4914e-03  2.4220e-03  2.6681e-03  3.8383e-03  9.3439e-03  0:12:01  389

 Reversed flow on 3046 faces (73.7% area) of pressure-outlet 24.

 Reversed flow on 1553 faces (74.3% area) of pressure-outlet 25.
   112  5.6736e-01  2.4770e-03  2.4277e-03  2.6843e-03  3.7837e-03  8.8270e-03  0:10:53  388

 Reversed flow on 3173 faces (76.9% area) of pressure-outlet 24.

 Reversed flow on 1538 faces (73.6% area) of pressure-outlet 25.
   113  5.6412e-01  2.4745e-03  2.4325e-03  2.6991e-03  3.8427e-03  8.9326e-03  0:11:16  387

 Reversed flow on 3246 faces (78.7% area) of pressure-outlet 24.

 Reversed flow on 1520 faces (72.8% area) of pressure-outlet 25.
   114  5.6316e-01  2.4797e-03  2.4432e-03  2.7097e-03  3.8190e-03  8.7079e-03  0:10:16  386

 Reversed flow on 3306 faces (80.2% area) of pressure-outlet 24.

 Reversed flow on 1504 faces (72.2% area) of pressure-outlet 25.
   115  5.6330e-01  2.4967e-03  2.4482e-03  2.7177e-03  3.8879e-03  8.9094e-03  0:10:46  385

 Reversed flow on 3342 faces (81.0% area) of pressure-outlet 24.

 Reversed flow on 1450 faces (69.6% area) of pressure-outlet 25.
   116  5.6496e-01  2.5140e-03  2.4589e-03  2.7244e-03  3.8819e-03  8.9220e-03  0:09:52  384

 Reversed flow on 3373 faces (81.9% area) of pressure-outlet 24.

 Reversed flow on 1456 faces (69.8% area) of pressure-outlet 25.
   117  5.6838e-01  2.5371e-03  2.4686e-03  2.7426e-03  4.0077e-03  9.3923e-03  0:09:09  383

 Reversed flow on 3402 faces (82.6% area) of pressure-outlet 24.

 Reversed flow on 1457 faces (69.8% area) of pressure-outlet 25.
   118  5.7219e-01  2.5640e-03  2.4861e-03  2.7679e-03  4.0106e-03  9.3340e-03  0:08:35  382

 Reversed flow on 3444 faces (83.7% area) of pressure-outlet 24.

 Reversed flow on 1454 faces (69.7% area) of pressure-outlet 25.
   119  5.7809e-01  2.5954e-03  2.5057e-03  2.8135e-03  4.1191e-03  9.4176e-03  0:08:07  381

 Reversed flow on 3455 faces (84.4% area) of pressure-outlet 24.

 Reversed flow on 1444 faces (69.2% area) of pressure-outlet 25.
   120  5.8675e-01  2.6261e-03  2.5378e-03  2.8607e-03  4.1745e-03  9.5834e-03  0:09:00  380

 Reversed flow on 3523 faces (85.9% area) of pressure-outlet 24.

 Reversed flow on 1444 faces (69.2% area) of pressure-outlet 25.
   121  5.9604e-01  2.6508e-03  2.5675e-03  2.9044e-03  4.3559e-03  1.0029e-02  0:09:43  379

 Reversed flow on 3599 faces (87.4% area) of pressure-outlet 24.

 Reversed flow on 1445 faces (69.3% area) of pressure-outlet 25.

  iter  continuity  x-velocity  y-velocity  z-velocity           k     epsilon     time/iter
   122  6.0354e-01  2.6590e-03  2.5822e-03  2.9399e-03  4.4447e-03  1.0221e-02  0:09:01  378

 Reversed flow on 3693 faces (89.0% area) of pressure-outlet 24.

 Reversed flow on 1441 faces (69.1% area) of pressure-outlet 25.
   123  6.0890e-01  2.6477e-03  2.5793e-03  2.9592e-03  4.5084e-03  1.0175e-02  0:09:42  377

 turbulent viscosity limited to viscosity ratio of 1.000000e+05 in 31 cells 

 Reversed flow on 3768 faces (90.3% area) of pressure-outlet 24.

 Reversed flow on 1441 faces (69.1% area) of pressure-outlet 25.
   124  6.0980e-01  2.6284e-03  2.5596e-03  2.9521e-03  4.5723e-03  1.0551e-02  0:09:00  376

 turbulent viscosity limited to viscosity ratio of 1.000000e+05 in 5 cells 

 Reversed flow on 3857 faces (91.5% area) of pressure-outlet 24.

 Reversed flow on 1434 faces (68.7% area) of pressure-outlet 25.
   125  6.0823e-01  2.5967e-03  2.5412e-03  2.9416e-03  4.6355e-03  1.0409e-02  0:09:41  375

 Reversed flow on 3913 faces (92.4% area) of pressure-outlet 24.

 Reversed flow on 1432 faces (68.6% area) of pressure-outlet 25.
   126  6.0477e-01  2.5600e-03  2.5139e-03  2.9165e-03  4.6348e-03  1.0581e-02  0:08:58  374

 turbulent viscosity limited to viscosity ratio of 1.000000e+05 in 7 cells 

 Reversed flow on 3950 faces (93.1% area) of pressure-outlet 24.

 Reversed flow on 1432 faces (68.6% area) of pressure-outlet 25.
   127  6.0181e-01  2.5205e-03  2.5011e-03  2.8842e-03  4.5240e-03  1.0307e-02  0:09:38  373

 Reversed flow on 3968 faces (93.4% area) of pressure-outlet 24.

 Reversed flow on 1437 faces (69.0% area) of pressure-outlet 25.
   128  5.9732e-01  2.4894e-03  2.4937e-03  2.8558e-03  4.5868e-03  1.0787e-02  0:08:56  372

 Reversed flow on 3964 faces (93.5% area) of pressure-outlet 24.

 Reversed flow on 1445 faces (69.4% area) of pressure-outlet 25.
   129  5.9250e-01  2.4541e-03  2.4906e-03  2.8323e-03  4.5667e-03  1.0467e-02  0:08:22  371

 Reversed flow on 3947 faces (93.5% area) of pressure-outlet 24.

 Reversed flow on 1450 faces (69.6% area) of pressure-outlet 25.
   130  5.8948e-01  2.4350e-03  2.4921e-03  2.8314e-03  4.6972e-03  1.0771e-02  0:09:08  370

 Reversed flow on 3869 faces (92.4% area) of pressure-outlet 24.

 Reversed flow on 1461 faces (70.0% area) of pressure-outlet 25.
   131  5.8754e-01  2.4380e-03  2.5173e-03  2.8477e-03  4.7614e-03  1.0719e-02  0:08:31  369

 Reversed flow on 3651 faces (88.4% area) of pressure-outlet 24.

 Reversed flow on 1472 faces (70.5% area) of pressure-outlet 25.
   132  5.8719e-01  2.4637e-03  2.5533e-03  2.8761e-03  4.9787e-03  1.1218e-02  0:09:15  368

 Reversed flow on 3506 faces (85.5% area) of pressure-outlet 24.

 Reversed flow on 1477 faces (70.8% area) of pressure-outlet 25.

  iter  continuity  x-velocity  y-velocity  z-velocity           k     epsilon     time/iter
   133  5.8972e-01  2.5073e-03  2.6026e-03  2.9219e-03  5.0451e-03  1.1080e-02  0:08:36  367

 Reversed flow on 3412 faces (83.5% area) of pressure-outlet 24.

 Reversed flow on 1482 faces (71.0% area) of pressure-outlet 25.
   134  5.9509e-01  2.5585e-03  2.6531e-03  2.9938e-03  5.1328e-03  1.1496e-02  0:09:18  366

 Reversed flow on 3362 faces (82.7% area) of pressure-outlet 24.

 Reversed flow on 1489 faces (71.3% area) of pressure-outlet 25.
   135  6.0010e-01  2.6166e-03  2.6933e-03  3.0687e-03  5.0483e-03  1.1515e-02  0:08:38  365

 Reversed flow on 3338 faces (82.7% area) of pressure-outlet 24.

 Reversed flow on 1494 faces (71.6% area) of pressure-outlet 25.
   136  6.0433e-01  2.6611e-03  2.7357e-03  3.1459e-03  4.9850e-03  1.1265e-02  0:09:19  364

 Reversed flow on 3270 faces (81.5% area) of pressure-outlet 24.

 Reversed flow on 1491 faces (71.4% area) of pressure-outlet 25.
   137  6.0753e-01  2.7054e-03  2.7746e-03  3.2023e-03  4.8899e-03  1.0926e-02  0:09:51  363

 Reversed flow on 3171 faces (79.1% area) of pressure-outlet 24.

 Reversed flow on 1494 faces (71.5% area) of pressure-outlet 25.
   138  6.1069e-01  2.7174e-03  2.8105e-03  3.2417e-03  4.8628e-03  1.0667e-02  0:09:04  362

 Reversed flow on 3100 faces (77.6% area) of pressure-outlet 24.

 Reversed flow on 1498 faces (71.7% area) of pressure-outlet 25.
   139  6.1337e-01  2.7124e-03  2.8270e-03  3.2540e-03  4.8665e-03  1.0863e-02  0:09:39  361

 Reversed flow on 3121 faces (77.6% area) of pressure-outlet 24.

 Reversed flow on 1499 faces (71.7% area) of pressure-outlet 25.
   140  6.1562e-01  2.6888e-03  2.8246e-03  3.2401e-03  4.7840e-03  1.0337e-02  0:10:06  360

 turbulent viscosity limited to viscosity ratio of 1.000000e+05 in 1 cells 

 Reversed flow on 3220 faces (79.0% area) of pressure-outlet 24.

 Reversed flow on 1503 faces (71.9% area) of pressure-outlet 25.
   141  6.1344e-01  2.6720e-03  2.7832e-03  3.2064e-03  4.7871e-03  1.0357e-02  0:10:27  359

 turbulent viscosity limited to viscosity ratio of 1.000000e+05 in 1 cells 

 Reversed flow on 3308 faces (80.0% area) of pressure-outlet 24.

 Reversed flow on 1502 faces (71.8% area) of pressure-outlet 25.
   142  6.0712e-01  2.6455e-03  2.7189e-03  3.1463e-03  4.6068e-03  9.7076e-03  0:09:32  358

 turbulent viscosity limited to viscosity ratio of 1.000000e+05 in 3 cells 

 Reversed flow on 3371 faces (81.1% area) of pressure-outlet 24.

 Reversed flow on 1454 faces (69.7% area) of pressure-outlet 25.
   143  6.0027e-01  2.6169e-03  2.6318e-03  3.0792e-03  4.5133e-03  9.6549e-03  0:08:47  357

 turbulent viscosity limited to viscosity ratio of 1.000000e+05 in 5 cells 

 Reversed flow on 3396 faces (81.9% area) of pressure-outlet 24.

 Reversed flow on 1431 faces (68.6% area) of pressure-outlet 25.

  iter  continuity  x-velocity  y-velocity  z-velocity           k     epsilon     time/iter
   144  5.9199e-01  2.5863e-03  2.5573e-03  3.0248e-03  4.3161e-03  9.1586e-03  0:09:23  356

 turbulent viscosity limited to viscosity ratio of 1.000000e+05 in 8 cells 

 Reversed flow on 3398 faces (82.7% area) of pressure-outlet 24.

 Reversed flow on 1448 faces (69.4% area) of pressure-outlet 25.
   145  5.8304e-01  2.5478e-03  2.4850e-03  2.9703e-03  4.2487e-03  9.1856e-03  0:08:40  355

 turbulent viscosity limited to viscosity ratio of 1.000000e+05 in 11 cells 

 Reversed flow on 3396 faces (83.3% area) of pressure-outlet 24.

 Reversed flow on 1448 faces (69.4% area) of pressure-outlet 25.
   146  5.7409e-01  2.4948e-03  2.4232e-03  2.9072e-03  4.0412e-03  8.6873e-03  0:09:17  354

 turbulent viscosity limited to viscosity ratio of 1.000000e+05 in 9 cells 

 Reversed flow on 3397 faces (83.7% area) of pressure-outlet 24.

 Reversed flow on 1437 faces (69.0% area) of pressure-outlet 25.
   147  5.6632e-01  2.4352e-03  2.3590e-03  2.8299e-03  3.9379e-03  8.6730e-03  0:08:35  353

 turbulent viscosity limited to viscosity ratio of 1.000000e+05 in 24 cells 

 Reversed flow on 3403 faces (84.2% area) of pressure-outlet 24.

 Reversed flow on 1431 faces (68.7% area) of pressure-outlet 25.
   148  5.5785e-01  2.3722e-03  2.2942e-03  2.7533e-03  3.7503e-03  8.3620e-03  0:09:11  352

 turbulent viscosity limited to viscosity ratio of 1.000000e+05 in 82 cells 

 Reversed flow on 3391 faces (84.5% area) of pressure-outlet 24.

 Reversed flow on 1433 faces (68.7% area) of pressure-outlet 25.
   149  5.4827e-01  2.3130e-03  2.2316e-03  2.6865e-03  3.7163e-03  8.1721e-03  0:08:30  351

 turbulent viscosity limited to viscosity ratio of 1.000000e+05 in 105 cells 

 Reversed flow on 3333 faces (83.6% area) of pressure-outlet 24.

 Reversed flow on 1436 faces (68.9% area) of pressure-outlet 25.
   150  5.3985e-01  2.2739e-03  2.1805e-03  2.6301e-03  3.6871e-03  8.0482e-03  0:09:07  350

 turbulent viscosity limited to viscosity ratio of 1.000000e+05 in 109 cells 

 Reversed flow on 3263 faces (82.5% area) of pressure-outlet 24.

 Reversed flow on 1445 faces (69.4% area) of pressure-outlet 25.
   151  5.3449e-01  2.2420e-03  2.1478e-03  2.5817e-03  3.6471e-03  8.0395e-03  0:09:36  349

 turbulent viscosity limited to viscosity ratio of 1.000000e+05 in 129 cells 

 Reversed flow on 3215 faces (81.4% area) of pressure-outlet 24.

 Reversed flow on 1459 faces (70.0% area) of pressure-outlet 25.
   152  5.3007e-01  2.2234e-03  2.1215e-03  2.5429e-03  3.5520e-03  7.8407e-03  0:08:49  348

 turbulent viscosity limited to viscosity ratio of 1.000000e+05 in 111 cells 

 Reversed flow on 3190 faces (80.8% area) of pressure-outlet 24.

 Reversed flow on 1468 faces (70.4% area) of pressure-outlet 25.
   153  5.2713e-01  2.2001e-03  2.0981e-03  2.5066e-03  3.5164e-03  7.2460e-03  0:09:21  347

 turbulent viscosity limited to viscosity ratio of 1.000000e+05 in 92 cells 

 Reversed flow on 3178 faces (80.7% area) of pressure-outlet 24.

 Reversed flow on 1482 faces (71.0% area) of pressure-outlet 25.
   154  5.2452e-01  2.1877e-03  2.0724e-03  2.4759e-03  3.4917e-03  7.2083e-03  0:08:36  346

 turbulent viscosity limited to viscosity ratio of 1.000000e+05 in 99 cells 

 Reversed flow on 3166 faces (80.6% area) of pressure-outlet 24.

 Reversed flow on 1489 faces (71.4% area) of pressure-outlet 25.

  iter  continuity  x-velocity  y-velocity  z-velocity           k     epsilon     time/iter
   155  5.2273e-01  2.1709e-03  2.0540e-03  2.4443e-03  3.3937e-03  6.8735e-03  0:09:10  345

 turbulent viscosity limited to viscosity ratio of 1.000000e+05 in 89 cells 

 Reversed flow on 3163 faces (80.7% area) of pressure-outlet 24.

 Reversed flow on 1496 faces (71.7% area) of pressure-outlet 25.
   156  5.2104e-01  2.1547e-03  2.0352e-03  2.4071e-03  3.3452e-03  6.9181e-03  0:08:28  344

 turbulent viscosity limited to viscosity ratio of 1.000000e+05 in 82 cells 

 Reversed flow on 3178 faces (81.1% area) of pressure-outlet 24.

 Reversed flow on 1504 faces (72.0% area) of pressure-outlet 25.
   157  5.1928e-01  2.1307e-03  2.0278e-03  2.3764e-03  3.2806e-03  6.6063e-03  0:07:53  343

 turbulent viscosity limited to viscosity ratio of 1.000000e+05 in 40 cells 

 Reversed flow on 3200 faces (81.9% area) of pressure-outlet 24.

 Reversed flow on 1497 faces (71.6% area) of pressure-outlet 25.
   158  5.1748e-01  2.1091e-03  2.0213e-03  2.3480e-03  3.3051e-03  6.8336e-03  0:08:34  342

 turbulent viscosity limited to viscosity ratio of 1.000000e+05 in 12 cells 

 Reversed flow on 3185 faces (81.3% area) of pressure-outlet 24.

 Reversed flow on 1491 faces (71.4% area) of pressure-outlet 25.
   159  5.1687e-01  2.0789e-03  2.0256e-03  2.3280e-03  3.1411e-03  6.6164e-03  0:07:59  341

 turbulent viscosity limited to viscosity ratio of 1.000000e+05 in 3 cells 

 Reversed flow on 3196 faces (81.5% area) of pressure-outlet 24.

 Reversed flow on 1486 faces (71.2% area) of pressure-outlet 25.
   160  5.1673e-01  2.0517e-03  2.0262e-03  2.3110e-03  3.0963e-03  6.8265e-03  0:08:38  340

 turbulent viscosity limited to viscosity ratio of 1.000000e+05 in 1 cells 

 Reversed flow on 3176 faces (81.1% area) of pressure-outlet 24.

 Reversed flow on 1481 faces (71.0% area) of pressure-outlet 25.
   161  5.1841e-01  2.0266e-03  2.0307e-03  2.2946e-03  3.0208e-03  6.6534e-03  0:08:01  339

 Reversed flow on 3167 faces (80.7% area) of pressure-outlet 24.

 Reversed flow on 1485 faces (71.1% area) of pressure-outlet 25.
   162  5.1812e-01  2.0059e-03  2.0318e-03  2.2775e-03  2.9942e-03  6.4591e-03  0:08:39  338

 Reversed flow on 3161 faces (80.2% area) of pressure-outlet 24.

 Reversed flow on 1476 faces (70.8% area) of pressure-outlet 25.
   163  5.1688e-01  1.9927e-03  2.0357e-03  2.2582e-03  2.9617e-03  6.5126e-03  0:08:01  337

 Reversed flow on 3144 faces (79.7% area) of pressure-outlet 24.

 Reversed flow on 1486 faces (71.3% area) of pressure-outlet 25.
   164  5.1448e-01  1.9886e-03  2.0406e-03  2.2439e-03  2.9878e-03  6.8567e-03  0:08:38  336

 Reversed flow on 3139 faces (79.7% area) of pressure-outlet 24.

 Reversed flow on 1451 faces (69.6% area) of pressure-outlet 25.
   165  5.1215e-01  1.9974e-03  2.0465e-03  2.2411e-03  3.0304e-03  7.1746e-03  0:09:07  335

 Reversed flow on 3110 faces (79.1% area) of pressure-outlet 24.

 Reversed flow on 1385 faces (66.5% area) of pressure-outlet 25.

  iter  continuity  x-velocity  y-velocity  z-velocity           k     epsilon     time/iter
   166  5.1079e-01  2.0072e-03  2.0571e-03  2.2504e-03  3.0466e-03  6.9934e-03  0:08:23  334

 Reversed flow on 3125 faces (79.3% area) of pressure-outlet 24.

 Reversed flow on 1389 faces (66.4% area) of pressure-outlet 25.
   167  5.1129e-01  2.0322e-03  2.0771e-03  2.2785e-03  3.1341e-03  7.4437e-03  0:08:55  333

 Reversed flow on 3099 faces (78.6% area) of pressure-outlet 24.

 Reversed flow on 1427 faces (68.4% area) of pressure-outlet 25.
   168  5.1674e-01  2.0659e-03  2.1099e-03  2.3267e-03  3.1885e-03  7.6093e-03  0:09:19  332

 Reversed flow on 3080 faces (78.3% area) of pressure-outlet 24.

 Reversed flow on 1446 faces (69.3% area) of pressure-outlet 25.
   169  5.2609e-01  2.1117e-03  2.1457e-03  2.3865e-03  3.2582e-03  8.0352e-03  0:08:32  331

 Reversed flow on 3088 faces (78.3% area) of pressure-outlet 24.

 Reversed flow on 1455 faces (69.7% area) of pressure-outlet 25.
   170  5.3679e-01  2.1477e-03  2.1821e-03  2.4462e-03  3.2191e-03  7.3656e-03  0:09:01  330

 Reversed flow on 3104 faces (78.2% area) of pressure-outlet 24.

 Reversed flow on 1460 faces (69.9% area) of pressure-outlet 25.
   171  5.4666e-01  2.1816e-03  2.2009e-03  2.4934e-03  3.2375e-03  7.5219e-03  0:09:23  329

 Reversed flow on 3106 faces (78.1% area) of pressure-outlet 24.

 Reversed flow on 1463 faces (70.0% area) of pressure-outlet 25.
   172  5.5463e-01  2.1988e-03  2.2031e-03  2.5179e-03  3.1712e-03  7.2934e-03  0:09:40  328

 Reversed flow on 3148 faces (78.7% area) of pressure-outlet 24.

 Reversed flow on 1466 faces (70.1% area) of pressure-outlet 25.
   173  5.5786e-01  2.2083e-03  2.1879e-03  2.5174e-03  3.1791e-03  7.5529e-03  0:09:53  327

 Reversed flow on 3192 faces (79.5% area) of pressure-outlet 24.

 Reversed flow on 1466 faces (70.1% area) of pressure-outlet 25.
   174  5.5738e-01  2.2006e-03  2.1657e-03  2.5056e-03  3.0891e-03  6.9780e-03  0:08:58  326

 Reversed flow on 3267 faces (80.7% area) of pressure-outlet 24.

 Reversed flow on 1462 faces (70.0% area) of pressure-outlet 25.
   175  5.5545e-01  2.1879e-03  2.1391e-03  2.4909e-03  3.0977e-03  7.2958e-03  0:09:19  325

 Reversed flow on 3382 faces (82.4% area) of pressure-outlet 24.

 Reversed flow on 1460 faces (69.9% area) of pressure-outlet 25.
   176  5.5224e-01  2.1634e-03  2.1181e-03  2.4727e-03  3.0236e-03  7.1693e-03  0:08:31  324

 Reversed flow on 3438 faces (83.4% area) of pressure-outlet 24.

 Reversed flow on 1457 faces (69.7% area) of pressure-outlet 25.

  iter  continuity  x-velocity  y-velocity  z-velocity           k     epsilon     time/iter
   177  5.4759e-01  2.1357e-03  2.0944e-03  2.4546e-03  3.0373e-03  7.4993e-03  0:08:57  323

 Reversed flow on 3447 faces (83.6% area) of pressure-outlet 24.

 Reversed flow on 1458 faces (69.8% area) of pressure-outlet 25.
   178  5.4220e-01  2.1013e-03  2.0808e-03  2.4335e-03  2.9550e-03  7.0384e-03  0:08:12  322

 turbulent viscosity limited to viscosity ratio of 1.000000e+05 in 2 cells 

 Reversed flow on 3471 faces (84.0% area) of pressure-outlet 24.

 Reversed flow on 1457 faces (69.7% area) of pressure-outlet 25.
   179  5.3699e-01  2.0706e-03  2.0705e-03  2.4137e-03  2.9860e-03  7.3156e-03  0:08:41  321

 Reversed flow on 3472 faces (84.2% area) of pressure-outlet 24.

 Reversed flow on 1455 faces (69.7% area) of pressure-outlet 25.
   180  5.3282e-01  2.0390e-03  2.0645e-03  2.4028e-03  2.9546e-03  7.1428e-03  0:08:00  320

 Reversed flow on 3474 faces (84.4% area) of pressure-outlet 24.

 Reversed flow on 1454 faces (69.6% area) of pressure-outlet 25.
   181  5.2819e-01  2.0149e-03  2.0571e-03  2.3945e-03  3.0435e-03  7.3443e-03  0:07:26  319

 turbulent viscosity limited to viscosity ratio of 1.000000e+05 in 327 cells 

 Reversed flow on 3465 faces (84.4% area) of pressure-outlet 24.

 Reversed flow on 1461 faces (69.9% area) of pressure-outlet 25.
   182  5.2525e-01  1.9998e-03  2.0570e-03  2.3953e-03  3.2133e-03  7.2285e-03  0:08:03  318

 turbulent viscosity limited to viscosity ratio of 1.000000e+05 in 1349 cells 

 Reversed flow on 3472 faces (84.7% area) of pressure-outlet 24.

 Reversed flow on 1466 faces (70.2% area) of pressure-outlet 25.
   183  5.2516e-01  2.0052e-03  2.0676e-03  2.4074e-03  5.4067e-03  8.1535e-03  0:07:29  317

 turbulent viscosity limited to viscosity ratio of 1.000000e+05 in 181 cells 

 Reversed flow on 3517 faces (85.5% area) of pressure-outlet 24.

 Reversed flow on 1467 faces (70.2% area) of pressure-outlet 25.
   184  5.2903e-01  2.0315e-03  2.1051e-03  2.4440e-03  9.1574e-03  7.9972e-03  0:08:04  316

[...]

 Reversed flow on 77 faces (14.8% area) of pressure-outlet 22.

 Reversed flow on 2832 faces (73.1% area) of pressure-outlet 24.

 Reversed flow on 1337 faces (64.1% area) of pressure-outlet 25.
   446  5.7723e-01  2.1445e-03  2.1454e-03  2.4045e-03  2.8466e-03  4.4678e-03  0:01:24   54

 Reversed flow on 77 faces (14.8% area) of pressure-outlet 22.

 Reversed flow on 2826 faces (73.0% area) of pressure-outlet 24.

 Reversed flow on 1343 faces (64.4% area) of pressure-outlet 25.
   447  5.7858e-01  2.1652e-03  2.0952e-03  2.4499e-03  2.9086e-03  4.7184e-03  0:01:17   53

 Reversed flow on 78 faces (15.1% area) of pressure-outlet 22.

 Reversed flow on 2831 faces (73.2% area) of pressure-outlet 24.

 Reversed flow on 1352 faces (64.8% area) of pressure-outlet 25.
   448  5.8131e-01  2.1630e-03  2.1341e-03  2.4711e-03  2.9127e-03  4.6893e-03  0:01:21   52

 Reversed flow on 77 faces (15.0% area) of pressure-outlet 22.

 Reversed flow on 2828 faces (73.0% area) of pressure-outlet 24.

 Reversed flow on 1346 faces (64.6% area) of pressure-outlet 25.
   449  5.8546e-01  2.1864e-03  2.1616e-03  2.4647e-03  2.9045e-03  4.8800e-03  0:01:14   51

 Reversed flow on 79 faces (15.4% area) of pressure-outlet 22.

 Reversed flow on 2834 faces (73.1% area) of pressure-outlet 24.

 Reversed flow on 1342 faces (64.3% area) of pressure-outlet 25.
   450  5.8911e-01  2.2046e-03  2.1048e-03  2.4167e-03  2.8528e-03  4.5525e-03  0:01:18   50

 Reversed flow on 80 faces (15.4% area) of pressure-outlet 22.

 Reversed flow on 2823 faces (72.8% area) of pressure-outlet 24.

 Reversed flow on 1340 faces (64.2% area) of pressure-outlet 25.
   451  5.8257e-01  2.1606e-03  2.0717e-03  2.4146e-03  2.8947e-03  4.7181e-03  0:01:21   49

 turbulent viscosity limited to viscosity ratio of 1.000000e+05 in 1 cells 

 Reversed flow on 81 faces (15.6% area) of pressure-outlet 22.

 Reversed flow on 2816 faces (72.6% area) of pressure-outlet 24.

 Reversed flow on 1346 faces (64.5% area) of pressure-outlet 25.

  iter  continuity  x-velocity  y-velocity  z-velocity           k     epsilon     time/iter
   452  5.7710e-01  2.1579e-03  2.0342e-03  2.4382e-03  2.8994e-03  4.5405e-03  0:01:13   48

 turbulent viscosity limited to viscosity ratio of 1.000000e+05 in 1 cells 

 Reversed flow on 81 faces (15.6% area) of pressure-outlet 22.

 Reversed flow on 2806 faces (72.4% area) of pressure-outlet 24.

 Reversed flow on 1350 faces (64.7% area) of pressure-outlet 25.
   453  5.7855e-01  2.1435e-03  2.0819e-03  2.4432e-03  2.9283e-03  4.7396e-03  0:01:16   47

 Reversed flow on 82 faces (15.7% area) of pressure-outlet 22.

 Reversed flow on 2793 faces (72.1% area) of pressure-outlet 24.

 Reversed flow on 1341 faces (64.3% area) of pressure-outlet 25.
   454  5.7877e-01  2.1414e-03  2.0689e-03  2.3991e-03  2.8671e-03  4.6132e-03  0:01:09   46

 Reversed flow on 86 faces (16.4% area) of pressure-outlet 22.

 Reversed flow on 2795 faces (72.1% area) of pressure-outlet 24.

 Reversed flow on 1344 faces (64.4% area) of pressure-outlet 25.
   455  5.7569e-01  2.1179e-03  2.0283e-03  2.3508e-03  2.8548e-03  4.6900e-03  0:01:12   45

 Reversed flow on 88 faces (16.7% area) of pressure-outlet 22.

 Reversed flow on 2795 faces (72.0% area) of pressure-outlet 24.

 Reversed flow on 1354 faces (64.9% area) of pressure-outlet 25.
   456  5.6572e-01  2.0368e-03  2.0072e-03  2.3477e-03  2.7741e-03  4.5198e-03  0:01:14   44

 Reversed flow on 88 faces (16.7% area) of pressure-outlet 22.

 Reversed flow on 2785 faces (71.7% area) of pressure-outlet 24.

 Reversed flow on 1357 faces (65.0% area) of pressure-outlet 25.
   457  5.5936e-01  2.0351e-03  1.9566e-03  2.3412e-03  2.7092e-03  4.5253e-03  0:01:06   43

 Reversed flow on 90 faces (17.0% area) of pressure-outlet 22.

 Reversed flow on 2780 faces (71.6% area) of pressure-outlet 24.

 Reversed flow on 1355 faces (65.0% area) of pressure-outlet 25.
   458  5.5620e-01  1.9785e-03  1.9655e-03  2.3103e-03  2.6163e-03  4.3027e-03  0:01:00   42

 Reversed flow on 91 faces (17.1% area) of pressure-outlet 22.

 Reversed flow on 2778 faces (71.6% area) of pressure-outlet 24.

 Reversed flow on 1353 faces (64.8% area) of pressure-outlet 25.
   459  5.5059e-01  1.9509e-03  1.9548e-03  2.2568e-03  2.5933e-03  4.3376e-03  0:00:55   41

 Reversed flow on 92 faces (17.3% area) of pressure-outlet 22.

 Reversed flow on 2787 faces (71.7% area) of pressure-outlet 24.

 Reversed flow on 1348 faces (64.7% area) of pressure-outlet 25.
   460  5.4417e-01  1.9386e-03  1.9322e-03  2.2468e-03  2.5321e-03  4.1467e-03  0:00:59   40

 Reversed flow on 92 faces (17.2% area) of pressure-outlet 22.

 Reversed flow on 2780 faces (71.6% area) of pressure-outlet 24.

 Reversed flow on 1354 faces (64.9% area) of pressure-outlet 25.
   461  5.3802e-01  1.9063e-03  1.9173e-03  2.2447e-03  2.5309e-03  4.3342e-03  0:00:54   39

 Reversed flow on 91 faces (17.0% area) of pressure-outlet 22.

 Reversed flow on 2774 faces (71.5% area) of pressure-outlet 24.

 Reversed flow on 1351 faces (64.7% area) of pressure-outlet 25.
   462  5.3386e-01  1.9242e-03  1.8841e-03  2.2254e-03  2.4530e-03  4.0833e-03  0:00:57   38

 Reversed flow on 88 faces (16.5% area) of pressure-outlet 22.

 Reversed flow on 2783 faces (71.8% area) of pressure-outlet 24.

 Reversed flow on 1347 faces (64.5% area) of pressure-outlet 25.

  iter  continuity  x-velocity  y-velocity  z-velocity           k     epsilon     time/iter
   463  5.3216e-01  1.8727e-03  1.9069e-03  2.1787e-03  2.4286e-03  4.0523e-03  0:00:59   37

 turbulent viscosity limited to viscosity ratio of 1.000000e+05 in 1 cells 

 Reversed flow on 86 faces (16.1% area) of pressure-outlet 22.

 Reversed flow on 2784 faces (71.8% area) of pressure-outlet 24.

 Reversed flow on 1337 faces (64.1% area) of pressure-outlet 25.
   464  5.2929e-01  1.8685e-03  1.9042e-03  2.1557e-03  2.3806e-03  3.7536e-03  0:00:53   36

 Reversed flow on 85 faces (15.9% area) of pressure-outlet 22.

 Reversed flow on 2770 faces (71.5% area) of pressure-outlet 24.

 Reversed flow on 1335 faces (64.0% area) of pressure-outlet 25.
   465  5.2780e-01  1.8686e-03  1.9243e-03  2.1735e-03  2.4161e-03  3.9367e-03  0:00:49   35

 Reversed flow on 81 faces (15.2% area) of pressure-outlet 22.

 Reversed flow on 2766 faces (71.4% area) of pressure-outlet 24.

 Reversed flow on 1341 faces (64.1% area) of pressure-outlet 25.
   466  5.2969e-01  1.9067e-03  1.9428e-03  2.1834e-03  2.3613e-03  3.7609e-03  0:00:51   34

 Reversed flow on 78 faces (14.7% area) of pressure-outlet 22.

 Reversed flow on 2761 faces (71.3% area) of pressure-outlet 24.

 Reversed flow on 1343 faces (64.3% area) of pressure-outlet 25.
   467  5.3260e-01  1.9678e-03  1.9071e-03  2.1738e-03  2.3537e-03  3.8198e-03  0:00:46   33

 turbulent viscosity limited to viscosity ratio of 1.000000e+05 in 1 cells 

 Reversed flow on 72 faces (13.6% area) of pressure-outlet 22.

 Reversed flow on 2765 faces (71.4% area) of pressure-outlet 24.

 Reversed flow on 1341 faces (64.1% area) of pressure-outlet 25.
   468  5.3493e-01  1.8980e-03  1.9381e-03  2.1628e-03  2.3421e-03  3.7268e-03  0:00:49   32

 turbulent viscosity limited to viscosity ratio of 1.000000e+05 in 4 cells 

 Reversed flow on 64 faces (12.1% area) of pressure-outlet 22.

 Reversed flow on 2763 faces (71.5% area) of pressure-outlet 24.

 Reversed flow on 1339 faces (64.0% area) of pressure-outlet 25.
   469  5.3168e-01  1.9130e-03  1.9127e-03  2.1636e-03  2.4219e-03  3.9626e-03  0:00:44   31

 Reversed flow on 59 faces (11.1% area) of pressure-outlet 22.

 Reversed flow on 2758 faces (71.3% area) of pressure-outlet 24.

 Reversed flow on 1340 faces (64.1% area) of pressure-outlet 25.
   470  5.2663e-01  1.9279e-03  1.9310e-03  2.1735e-03  2.3975e-03  3.8405e-03  0:00:46   30

 Reversed flow on 54 faces (10.1% area) of pressure-outlet 22.

 Reversed flow on 2763 faces (71.5% area) of pressure-outlet 24.

 Reversed flow on 1340 faces (64.1% area) of pressure-outlet 25.
   471  5.2897e-01  1.9704e-03  1.9318e-03  2.1714e-03  2.4426e-03  4.0536e-03  0:00:47   29

 Reversed flow on 54 faces (10.1% area) of pressure-outlet 22.

 Reversed flow on 2764 faces (71.5% area) of pressure-outlet 24.

 Reversed flow on 1346 faces (64.4% area) of pressure-outlet 25.
   472  5.3285e-01  1.9971e-03  1.9151e-03  2.1904e-03  2.4473e-03  4.0323e-03  0:00:42   28

 Reversed flow on 52 faces (9.8% area) of pressure-outlet 22.

 Reversed flow on 2771 faces (71.6% area) of pressure-outlet 24.

 Reversed flow on 1343 faces (64.2% area) of pressure-outlet 25.
   473  5.3423e-01  1.9409e-03  1.9996e-03  2.2063e-03  2.5007e-03  4.2424e-03  0:00:43   27

 Reversed flow on 48 faces (9.1% area) of pressure-outlet 22.

 Reversed flow on 2767 faces (71.4% area) of pressure-outlet 24.

 Reversed flow on 1336 faces (63.9% area) of pressure-outlet 25.

  iter  continuity  x-velocity  y-velocity  z-velocity           k     epsilon     time/iter
   474  5.3526e-01  2.0194e-03  2.0023e-03  2.2181e-03  2.4728e-03  4.1221e-03  0:00:39   26

 Reversed flow on 49 faces (9.4% area) of pressure-outlet 22.

 Reversed flow on 2764 faces (71.3% area) of pressure-outlet 24.

 Reversed flow on 1340 faces (64.1% area) of pressure-outlet 25.
   475  5.3841e-01  2.0247e-03  2.0270e-03  2.2286e-03  2.5047e-03  4.1923e-03  0:00:40   25

 Reversed flow on 49 faces (9.4% area) of pressure-outlet 22.

 Reversed flow on 2777 faces (71.6% area) of pressure-outlet 24.

 Reversed flow on 1349 faces (64.5% area) of pressure-outlet 25.
   476  5.4054e-01  2.0043e-03  2.0110e-03  2.2418e-03  2.5080e-03  4.2273e-03  0:00:40   24

 Reversed flow on 48 faces (9.3% area) of pressure-outlet 22.

 Reversed flow on 2778 faces (71.6% area) of pressure-outlet 24.

 Reversed flow on 1354 faces (64.8% area) of pressure-outlet 25.
   477  5.4053e-01  2.0184e-03  1.9760e-03  2.2512e-03  2.5206e-03  4.3166e-03  0:00:35   23

 Reversed flow on 47 faces (9.2% area) of pressure-outlet 22.

 Reversed flow on 2784 faces (71.7% area) of pressure-outlet 24.

 Reversed flow on 1350 faces (64.6% area) of pressure-outlet 25.
   478  5.4242e-01  1.9850e-03  2.0098e-03  2.2407e-03  2.5015e-03  4.4320e-03  0:00:36   22

 Reversed flow on 49 faces (9.7% area) of pressure-outlet 22.

 Reversed flow on 2782 faces (71.6% area) of pressure-outlet 24.

 Reversed flow on 1347 faces (64.5% area) of pressure-outlet 25.
   479  5.4141e-01  2.0280e-03  1.9584e-03  2.2279e-03  2.4679e-03  4.3553e-03  0:00:36   21

 Reversed flow on 54 faces (10.6% area) of pressure-outlet 22.

 Reversed flow on 2790 faces (71.8% area) of pressure-outlet 24.

 Reversed flow on 1355 faces (64.9% area) of pressure-outlet 25.
   480  5.3893e-01  1.9735e-03  1.9529e-03  2.2216e-03  2.4575e-03  4.3541e-03  0:00:31   20

 Reversed flow on 57 faces (11.2% area) of pressure-outlet 22.

 Reversed flow on 2805 faces (72.2% area) of pressure-outlet 24.

 Reversed flow on 1358 faces (65.0% area) of pressure-outlet 25.
   481  5.3431e-01  1.9297e-03  1.9513e-03  2.2019e-03  2.4511e-03  4.2912e-03  0:00:31   19

 Reversed flow on 60 faces (11.7% area) of pressure-outlet 22.

 Reversed flow on 2807 faces (72.3% area) of pressure-outlet 24.

 Reversed flow on 1364 faces (65.3% area) of pressure-outlet 25.
   482  5.3343e-01  1.9407e-03  1.8811e-03  2.1742e-03  2.4696e-03  4.4833e-03  0:00:31   18

 Reversed flow on 62 faces (12.1% area) of pressure-outlet 22.

 Reversed flow on 2802 faces (72.1% area) of pressure-outlet 24.

 Reversed flow on 1352 faces (64.7% area) of pressure-outlet 25.
   483  5.3281e-01  1.8928e-03  1.8864e-03  2.1576e-03  2.4842e-03  4.4686e-03  0:00:27   17

 Reversed flow on 66 faces (12.8% area) of pressure-outlet 22.

 Reversed flow on 2809 faces (72.2% area) of pressure-outlet 24.

 Reversed flow on 1345 faces (64.5% area) of pressure-outlet 25.
   484  5.3018e-01  1.9160e-03  1.8437e-03  2.1614e-03  2.5008e-03  4.6187e-03  0:00:27   16

 turbulent viscosity limited to viscosity ratio of 1.000000e+05 in 1 cells 

 Reversed flow on 68 faces (13.2% area) of pressure-outlet 22.

 Reversed flow on 2809 faces (72.2% area) of pressure-outlet 24.

 Reversed flow on 1345 faces (64.5% area) of pressure-outlet 25.

  iter  continuity  x-velocity  y-velocity  z-velocity           k     epsilon     time/iter
   485  5.2681e-01  1.8910e-03  1.8830e-03  2.1711e-03  2.5216e-03  4.5776e-03  0:00:26   15

 Reversed flow on 72 faces (13.9% area) of pressure-outlet 22.

 Reversed flow on 2789 faces (71.8% area) of pressure-outlet 24.

 Reversed flow on 1354 faces (64.9% area) of pressure-outlet 25.
   486  5.2759e-01  1.8824e-03  1.9119e-03  2.1433e-03  2.5448e-03  4.7714e-03  0:00:22   14

 Reversed flow on 74 faces (14.2% area) of pressure-outlet 22.

 Reversed flow on 2783 faces (71.6% area) of pressure-outlet 24.

 Reversed flow on 1347 faces (64.6% area) of pressure-outlet 25.
   487  5.2981e-01  1.9141e-03  1.8567e-03  2.1254e-03  2.5137e-03  4.5768e-03  0:00:22   13

 turbulent viscosity limited to viscosity ratio of 1.000000e+05 in 4 cells 

 Reversed flow on 75 faces (14.3% area) of pressure-outlet 22.

 Reversed flow on 2793 faces (71.8% area) of pressure-outlet 24.

 Reversed flow on 1353 faces (64.9% area) of pressure-outlet 25.
   488  5.2960e-01  1.8792e-03  1.8475e-03  2.1113e-03  2.5460e-03  4.7909e-03  0:00:21   12

 turbulent viscosity limited to viscosity ratio of 1.000000e+05 in 2 cells 

 Reversed flow on 77 faces (14.7% area) of pressure-outlet 22.

 Reversed flow on 2801 faces (71.9% area) of pressure-outlet 24.

 Reversed flow on 1353 faces (64.9% area) of pressure-outlet 25.
   489  5.2683e-01  1.8925e-03  1.8268e-03  2.1072e-03  2.5330e-03  4.6204e-03  0:00:17   11

 turbulent viscosity limited to viscosity ratio of 1.000000e+05 in 9 cells 

 Reversed flow on 79 faces (15.1% area) of pressure-outlet 22.

 Reversed flow on 2799 faces (71.9% area) of pressure-outlet 24.

 Reversed flow on 1357 faces (65.1% area) of pressure-outlet 25.
   490  5.2617e-01  1.8920e-03  1.8474e-03  2.1074e-03  2.5925e-03  4.9198e-03  0:00:17   10

 turbulent viscosity limited to viscosity ratio of 1.000000e+05 in 14 cells 

 Reversed flow on 80 faces (15.2% area) of pressure-outlet 22.

 Reversed flow on 2783 faces (71.5% area) of pressure-outlet 24.

 Reversed flow on 1358 faces (65.2% area) of pressure-outlet 25.
   491  5.2913e-01  1.8985e-03  1.8580e-03  2.0961e-03  2.5640e-03  4.7429e-03  0:00:14    9

 turbulent viscosity limited to viscosity ratio of 1.000000e+05 in 8 cells 

 Reversed flow on 79 faces (15.1% area) of pressure-outlet 22.

 Reversed flow on 2783 faces (71.5% area) of pressure-outlet 24.

 Reversed flow on 1365 faces (65.5% area) of pressure-outlet 25.
   492  5.2803e-01  1.9171e-03  1.7997e-03  2.0950e-03  2.5861e-03  4.8389e-03  0:00:11    8

 turbulent viscosity limited to viscosity ratio of 1.000000e+05 in 1 cells 

 Reversed flow on 77 faces (14.9% area) of pressure-outlet 22.

 Reversed flow on 2758 faces (70.9% area) of pressure-outlet 24.

 Reversed flow on 1372 faces (65.8% area) of pressure-outlet 25.
   493  5.2515e-01  1.8687e-03  1.8150e-03  2.0783e-03  2.5205e-03  4.4533e-03  0:00:11    7

 turbulent viscosity limited to viscosity ratio of 1.000000e+05 in 1 cells 

 Reversed flow on 73 faces (14.2% area) of pressure-outlet 22.

 Reversed flow on 2747 faces (70.6% area) of pressure-outlet 24.

 Reversed flow on 1374 faces (66.0% area) of pressure-outlet 25.
   494  5.2491e-01  1.8885e-03  1.7965e-03  2.0814e-03  2.5315e-03  4.5736e-03  0:00:10    6

 Reversed flow on 72 faces (14.0% area) of pressure-outlet 22.

 Reversed flow on 2757 faces (70.9% area) of pressure-outlet 24.

 Reversed flow on 1374 faces (65.9% area) of pressure-outlet 25.
   495  5.2875e-01  1.8768e-03  1.8243e-03  2.0832e-03  2.4745e-03  4.3706e-03  0:00:08    5

 Reversed flow on 67 faces (13.1% area) of pressure-outlet 22.

 Reversed flow on 2756 faces (71.0% area) of pressure-outlet 24.

 Reversed flow on 1372 faces (65.9% area) of pressure-outlet 25.

  iter  continuity  x-velocity  y-velocity  z-velocity           k     epsilon     time/iter
   496  5.3246e-01  1.8613e-03  1.8132e-03  2.0768e-03  2.4759e-03  4.4539e-03  0:00:06    4

 Reversed flow on 64 faces (12.5% area) of pressure-outlet 22.

 Reversed flow on 2766 faces (71.3% area) of pressure-outlet 24.

 Reversed flow on 1372 faces (65.8% area) of pressure-outlet 25.
   497  5.2691e-01  1.8382e-03  1.7647e-03  2.0714e-03  2.3997e-03  4.1104e-03  0:00:04    3

 Reversed flow on 65 faces (12.7% area) of pressure-outlet 22.

 Reversed flow on 2758 faces (71.1% area) of pressure-outlet 24.

 Reversed flow on 1369 faces (65.7% area) of pressure-outlet 25.
   498  5.2074e-01  1.7864e-03  1.7887e-03  2.0548e-03  2.3746e-03  4.1467e-03  0:00:03    2

 Reversed flow on 60 faces (11.7% area) of pressure-outlet 22.

 Reversed flow on 2762 faces (71.1% area) of pressure-outlet 24.

 Reversed flow on 1363 faces (65.4% area) of pressure-outlet 25.
   499  5.1902e-01  1.8342e-03  1.7662e-03  2.0412e-03  2.2667e-03  3.8822e-03  0:00:01    1

 Reversed flow on 56 faces (10.9% area) of pressure-outlet 22.

 Reversed flow on 2783 faces (71.7% area) of pressure-outlet 24.

 Reversed flow on 1351 faces (64.8% area) of pressure-outlet 25.
   500  5.1971e-01  1.8069e-03  1.7625e-03  2.0135e-03  2.2425e-03  3.9018e-03  0:00:00    0

> ;/solve/set/time-step 0.01
;solve/set/data-sampling y 1 y y
;/solve/dual-time-iterate 5000 10

adjoint/                file/                   report/
define/                 mesh/                   solve/
display/                parallel/               surface/
exit                    plot/                   views/

> ; set save
;no .h5 format

adjoint/                file/                   report/
define/                 mesh/                   solve/
display/                parallel/               surface/
exit                    plot/                   views/

> /file/cff-files? n

> ;/file/autosave/root-name "Me_317"
/file/write-case-data "E:\LGF\Sim\task\0826_1\P_85\FluentData_M100_-2900_85.cas"
Writing "E:\LGF\Sim\task\0826_1\P_85\FluentData_M100_-2900_85.cas"...

    6990 mixed cells, zone 15, binary.
  565192 mixed cells, zone 16, binary.
  128494 mixed cells, zone 17, binary.
   99631 mixed cells, zone 18, binary.
  112217 mixed cells, zone 19, binary.
    6990 cell partition ids, zone 15, 100 partitions, binary.
  565192 cell partition ids, zone 16, 100 partitions, binary.
  128494 cell partition ids, zone 17, 100 partitions, binary.
   99631 cell partition ids, zone 18, 100 partitions, binary.
  112217 cell partition ids, zone 19, 100 partitions, binary.
    3768 mixed wall faces, zone  1, binary.
   34998 triangular wall faces, zone  2, binary.
    6023 triangular wall faces, zone  3, binary.
   11483 triangular wall faces, zone  4, binary.
    5640 triangular wall faces, zone  5, binary.
    2602 triangular interior faces, zone  6, binary.
     310 quadrilateral interior faces, zone  7, binary.
    2662 mixed interior faces, zone  8, binary.
    2776 mixed interior faces, zone  9, binary.
   18821 mixed interior faces, zone 10, binary.
 1189685 mixed interior faces, zone 11, binary.
  263371 mixed interior faces, zone 12, binary.
  203749 mixed interior faces, zone 13, binary.
  217848 triangular interior faces, zone 14, binary.
     637 triangular pressure-outlet faces, zone 22, binary.
     100 quadrilateral velocity-inlet faces, zone 23, binary.
    4385 mixed pressure-outlet faces, zone 24, binary.
    2646 mixed pressure-outlet faces, zone 25, binary.
    1906 triangular velocity-inlet faces, zone 26, binary.
    4293 triangular wall faces, zone 27, binary.
    4279 triangular wall faces, zone 28, binary.
  252813 nodes, binary.
  252813 node flags, binary.
Done.


Writing "E:\LGF\Sim\task\0826_1\P_85\FluentData_M100_-2900_85.dat"...

Done.



> ;/display/save-picture "E:\LGF\Sim\task\0826_1\P_85\FluentData_M100_-2900_85jpg"
/exit/c